
     RDKit          2D

 31 34  0  0  0  0  0  0  0  0999 V2000
   -2.9520   -4.6564    0.0000 C   0  0  0  0  0  0  0  0  0  0  0  0
   -2.6401   -3.1891    0.0000 C   0  0  0  0  0  0  0  0  0  0  0  0
   -3.7548   -2.1855    0.0000 C   0  0  0  0  0  0  0  0  0  0  0  0
   -1.2135   -2.7256    0.0000 N   0  0  0  0  0  0  0  0  0  0  0  0
   -0.0000   -3.6073    0.0000 C   0  0  0  0  0  0  0  0  0  0  0  0
    1.2135   -2.7256    0.0000 C   0  0  0  0  0  0  0  0  0  0  0  0
    2.6401   -3.1891    0.0000 C   0  0  0  0  0  0  0  0  0  0  0  0
    3.7548   -2.1855    0.0000 O   0  0  0  0  0  0  0  0  0  0  0  0
    2.9520   -4.6564    0.0000 C   0  0  0  0  0  0  0  0  0  0  0  0
    1.8373   -5.6601    0.0000 C   0  0  0  0  0  0  0  0  0  0  0  0
    2.1491   -7.1273    0.0000 N   0  0  0  0  0  0  0  0  0  0  0  0
    3.5757   -7.5908    0.0000 C   0  0  0  0  0  0  0  0  0  0  0  0
    4.6904   -6.5871    0.0000 C   0  0  0  0  0  0  0  0  0  0  0  0
    6.1170   -7.0506    0.0000 N   0  0  0  0  0  0  0  0  0  0  0  0
    6.4289   -8.5179    0.0000 C   0  0  0  0  0  0  0  0  0  0  0  0
    5.3142   -9.5216    0.0000 O   0  0  0  0  0  0  0  0  0  0  0  0
    7.8555   -8.9814    0.0000 C   0  0  0  0  0  0  0  0  0  0  0  0
    8.9702   -7.9777    0.0000 O   0  0  0  0  0  0  0  0  0  0  0  0
    8.1673  -10.4486    0.0000 C   0  0  0  0  0  0  0  0  0  0  0  0
    7.0526  -11.4523    0.0000 C   0  0  0  0  0  0  0  0  0  0  0  0
    7.3645  -12.9195    0.0000 C   0  0  0  0  0  0  0  0  0  0  0  0
    8.7911  -13.3831    0.0000 C   0  0  0  0  0  0  0  0  0  0  0  0
    9.9058  -12.3794    0.0000 C   0  0  0  0  0  0  0  0  0  0  0  0
    9.5939  -10.9121    0.0000 C   0  0  0  0  0  0  0  0  0  0  0  0
    4.3786   -5.1199    0.0000 C   0  0  0  0  0  0  0  0  0  0  0  0
    0.7500   -1.2990    0.0000 C   0  0  0  0  0  0  0  0  0  0  0  0
    1.5000    0.0000    0.0000 C   0  0  0  0  0  0  0  0  0  0  0  0
    0.7500    1.2990    0.0000 N   0  0  0  0  0  0  0  0  0  0  0  0
   -0.7500    1.2990    0.0000 C   0  0  0  0  0  0  0  0  0  0  0  0
   -1.5000    0.0000    0.0000 N   0  0  0  0  0  0  0  0  0  0  0  0
   -0.7500   -1.2990    0.0000 C   0  0  0  0  0  0  0  0  0  0  0  0
  1  2  1  0
  2  3  1  0
  2  4  1  0
  4  5  1  0
  5  6  2  0
  6  7  1  0
  7  8  2  0
  7  9  1  0
  9 10  2  0
 10 11  1  0
 11 12  2  0
 12 13  1  0
 13 14  1  0
 14 15  1  0
 15 16  2  0
 15 17  1  0
 17 18  1  0
 17 19  1  0
 19 20  2  0
 20 21  1  0
 21 22  2  0
 22 23  1  0
 23 24  2  0
 13 25  2  0
  6 26  1  0
 26 27  2  0
 27 28  1  0
 28 29  2  0
 29 30  1  0
 30 31  2  0
 31  4  1  0
 25  9  1  0
 31 26  1  0
 24 19  1  0
M  END
>  <Compound_ID>  (1) 
CHEMBL3671396

>  <Molecule Name>  (1) 
nan

>  <Molecular Weight>  (1) 
415.45

>  <AlogP>  (1) 
3.31

>  <Smiles>  (1) 
CC(C)n1cc(C(=O)c2cncc(NC(=O)C(O)c3ccccc3)c2)c2cncnc21

>  <Standard Type>  (1) 
IC50

>  <Standard Relation>  (1) 
'='

>  <Standard Units>  (1) 
nM

>  <Standard Value>  (1) 
7.3

>  <Assay ChEMBL ID>  (1) 
CHEMBL3887033

>  <Assay Description>  (1) 
Enzyme Assay: Isolated TRK Enzyme assays use the HTRF KinEASE-TK kit (Cisbio Cat# 62TK0PEJ) with recombinant His-tagged cytoplasmic domains of each TRK receptor sourced from Invitrogen (see table below). This activity-assay measures the phosphorylation of tyrosine residues within a substrate from the HTRF kit which has been validated by Cisbio for a variety of tyrosine kinases including the TRK receptors. Assay details: Target:TRKA; Invitrogen Cat# PV3144; Amino acids:aa 441-796; FAC enzyme:4nM; FAC ATP:40uM; Assay Reaction Time:35min.

>  <BAO Format ID>  (1) 
BAO_0000357

>  <BAO Label>  (1) 
single protein format

>  <Assay Organism>  (1) 
None

>  <Target ChEMBL ID>  (1) 
CHEMBL2815

>  <Target Name>  (1) 
Nerve growth factor receptor Trk-A

>  <Target Organism>  (1) 
Homo sapiens

>  <Target Type>  (1) 
SINGLE PROTEIN

>  <Document ChEMBL ID>  (1) 
CHEMBL3639348

>  <Source Description>  (1) 
BindingDB Database

>  <Document Journal>  (1) 
nan

>  <Document Year>  (1) 
2014.0

>  <Active>  (1) 
1.0

>  <bits>  (1) 
<rdkit.DataStructs.cDataStructs.ExplicitBitVect object at 0x00000159F5490F20>

>  <Group>  (1) 
G2

$$$$

     RDKit          2D

 28 31  0  0  0  0  0  0  0  0999 V2000
    9.7500   -6.4952    0.0000 C   0  0  0  0  0  0  0  0  0  0  0  0
    8.2500   -6.4952    0.0000 N   0  0  0  0  0  0  0  0  0  0  0  0
    7.5000   -7.7942    0.0000 C   0  0  0  0  0  0  0  0  0  0  0  0
    7.5000   -5.1962    0.0000 C   0  0  0  0  0  0  0  0  0  0  0  0
    6.0000   -5.1962    0.0000 C   0  0  0  0  0  0  0  0  0  0  0  0
    5.2500   -3.8971    0.0000 O   0  0  0  0  0  0  0  0  0  0  0  0
    3.7500   -3.8971    0.0000 C   0  0  0  0  0  0  0  0  0  0  0  0
    3.0000   -5.1962    0.0000 C   0  0  0  0  0  0  0  0  0  0  0  0
    1.5000   -5.1962    0.0000 C   0  0  0  0  0  0  0  0  0  0  0  0
    0.7500   -6.4952    0.0000 N   0  0  0  0  0  0  0  0  0  0  0  0
    0.7500   -3.8971    0.0000 C   0  0  0  0  0  0  0  0  0  0  0  0
    1.5000   -2.5981    0.0000 C   0  0  0  0  0  0  0  0  0  0  0  0
    0.7500   -1.2990    0.0000 C   0  0  0  0  0  0  0  0  0  0  0  0
    1.5000    0.0000    0.0000 C   0  0  0  0  0  0  0  0  0  0  0  0
    0.7500    1.2990    0.0000 N   0  0  0  0  0  0  0  0  0  0  0  0
   -0.7500    1.2990    0.0000 C   0  0  0  0  0  0  0  0  0  0  0  0
   -1.7537    2.4138    0.0000 N   0  0  0  0  0  0  0  0  0  0  0  0
   -3.1240    1.8037    0.0000 C   0  0  0  0  0  0  0  0  0  0  0  0
   -2.9672    0.3119    0.0000 C   0  0  0  0  0  0  0  0  0  0  0  0
   -4.0819   -0.6918    0.0000 C   0  0  0  0  0  0  0  0  0  0  0  0
   -5.5085   -0.2283    0.0000 C   0  0  0  0  0  0  0  0  0  0  0  0
   -6.6232   -1.2320    0.0000 C   0  0  0  0  0  0  0  0  0  0  0  0
   -6.3114   -2.6992    0.0000 N   0  0  0  0  0  0  0  0  0  0  0  0
   -4.8848   -3.1627    0.0000 C   0  0  0  0  0  0  0  0  0  0  0  0
   -3.7701   -2.1590    0.0000 C   0  0  0  0  0  0  0  0  0  0  0  0
   -1.5000    0.0000    0.0000 C   0  0  0  0  0  0  0  0  0  0  0  0
   -0.7500   -1.2990    0.0000 C   0  0  0  0  0  0  0  0  0  0  0  0
    3.0000   -2.5981    0.0000 C   0  0  0  0  0  0  0  0  0  0  0  0
  1  2  1  0
  2  3  1  0
  2  4  1  0
  4  5  1  0
  5  6  1  0
  6  7  1  0
  7  8  2  0
  8  9  1  0
  9 10  1  0
  9 11  2  0
 11 12  1  0
 12 13  1  0
 13 14  2  0
 14 15  1  0
 15 16  2  0
 16 17  1  0
 17 18  1  0
 18 19  2  0
 19 20  1  0
 20 21  2  0
 21 22  1  0
 22 23  2  0
 23 24  1  0
 24 25  2  0
 19 26  1  0
 26 27  2  0
 12 28  2  0
 28  7  1  0
 27 13  1  0
 26 16  1  0
 25 20  1  0
M  END
>  <Compound_ID>  (2) 
CHEMBL2152282

>  <Molecule Name>  (2) 
nan

>  <Molecular Weight>  (2) 
373.46

>  <AlogP>  (2) 
3.81

>  <Smiles>  (2) 
CN(C)CCOc1cc(N)cc(-c2cnc3[nH]cc(-c4ccncc4)c3c2)c1

>  <Standard Type>  (2) 
IC50

>  <Standard Relation>  (2) 
'='

>  <Standard Units>  (2) 
nM

>  <Standard Value>  (2) 
13.63

>  <Assay ChEMBL ID>  (2) 
CHEMBL2157053

>  <Assay Description>  (2) 
Inhibition of TRKA assessed as [gamma33P]ATP incorporation into substrate

>  <BAO Format ID>  (2) 
BAO_0000357

>  <BAO Label>  (2) 
single protein format

>  <Assay Organism>  (2) 
None

>  <Target ChEMBL ID>  (2) 
CHEMBL2815

>  <Target Name>  (2) 
Nerve growth factor receptor Trk-A

>  <Target Organism>  (2) 
Homo sapiens

>  <Target Type>  (2) 
SINGLE PROTEIN

>  <Document ChEMBL ID>  (2) 
CHEMBL2150859

>  <Source Description>  (2) 
Scientific Literature

>  <Document Journal>  (2) 
J Med Chem

>  <Document Year>  (2) 
2012.0

>  <Active>  (2) 
1.0

>  <bits>  (2) 
<rdkit.DataStructs.cDataStructs.ExplicitBitVect object at 0x00000159F5493A00>

>  <Group>  (2) 
G2

$$$$

     RDKit          2D

 23 26  0  0  0  0  0  0  0  0999 V2000
    6.0000   -5.1962    0.0000 C   0  0  0  0  0  0  0  0  0  0  0  0
    5.2500   -3.8971    0.0000 N   0  0  0  0  0  0  0  0  0  0  0  0
    3.7500   -3.8971    0.0000 C   0  0  0  0  0  0  0  0  0  0  0  0
    3.0000   -5.1962    0.0000 C   0  0  0  0  0  0  0  0  0  0  0  0
    1.5000   -5.1962    0.0000 C   0  0  0  0  0  0  0  0  0  0  0  0
    0.7500   -3.8971    0.0000 C   0  0  0  0  0  0  0  0  0  0  0  0
    1.5000   -2.5981    0.0000 C   0  0  0  0  0  0  0  0  0  0  0  0
    0.7500   -1.2990    0.0000 C   0  0  0  0  0  0  0  0  0  0  0  0
    1.5000    0.0000    0.0000 C   0  0  0  0  0  0  0  0  0  0  0  0
    0.7500    1.2990    0.0000 N   0  0  0  0  0  0  0  0  0  0  0  0
   -0.7500    1.2990    0.0000 C   0  0  0  0  0  0  0  0  0  0  0  0
   -1.7537    2.4138    0.0000 N   0  0  0  0  0  0  0  0  0  0  0  0
   -3.1240    1.8037    0.0000 C   0  0  0  0  0  0  0  0  0  0  0  0
   -2.9672    0.3119    0.0000 C   0  0  0  0  0  0  0  0  0  0  0  0
   -4.0819   -0.6918    0.0000 C   0  0  0  0  0  0  0  0  0  0  0  0
   -5.5085   -0.2283    0.0000 C   0  0  0  0  0  0  0  0  0  0  0  0
   -6.6232   -1.2320    0.0000 C   0  0  0  0  0  0  0  0  0  0  0  0
   -6.3114   -2.6992    0.0000 N   0  0  0  0  0  0  0  0  0  0  0  0
   -4.8848   -3.1627    0.0000 C   0  0  0  0  0  0  0  0  0  0  0  0
   -3.7701   -2.1590    0.0000 C   0  0  0  0  0  0  0  0  0  0  0  0
   -1.5000    0.0000    0.0000 C   0  0  0  0  0  0  0  0  0  0  0  0
   -0.7500   -1.2990    0.0000 C   0  0  0  0  0  0  0  0  0  0  0  0
    3.0000   -2.5981    0.0000 C   0  0  0  0  0  0  0  0  0  0  0  0
  1  2  1  0
  2  3  1  0
  3  4  2  0
  4  5  1  0
  5  6  2  0
  6  7  1  0
  7  8  1  0
  8  9  2  0
  9 10  1  0
 10 11  2  0
 11 12  1  0
 12 13  1  0
 13 14  2  0
 14 15  1  0
 15 16  2  0
 16 17  1  0
 17 18  2  0
 18 19  1  0
 19 20  2  0
 14 21  1  0
 21 22  2  0
  7 23  2  0
 23  3  1  0
 22  8  1  0
 21 11  1  0
 20 15  1  0
M  END
>  <Compound_ID>  (3) 
CHEMBL2152270

>  <Molecule Name>  (3) 
nan

>  <Molecular Weight>  (3) 
300.37

>  <AlogP>  (3) 
4.33

>  <Smiles>  (3) 
CNc1cccc(-c2cnc3[nH]cc(-c4ccncc4)c3c2)c1

>  <Standard Type>  (3) 
IC50

>  <Standard Relation>  (3) 
'='

>  <Standard Units>  (3) 
nM

>  <Standard Value>  (3) 
31.4

>  <Assay ChEMBL ID>  (3) 
CHEMBL2157053

>  <Assay Description>  (3) 
Inhibition of TRKA assessed as [gamma33P]ATP incorporation into substrate

>  <BAO Format ID>  (3) 
BAO_0000357

>  <BAO Label>  (3) 
single protein format

>  <Assay Organism>  (3) 
None

>  <Target ChEMBL ID>  (3) 
CHEMBL2815

>  <Target Name>  (3) 
Nerve growth factor receptor Trk-A

>  <Target Organism>  (3) 
Homo sapiens

>  <Target Type>  (3) 
SINGLE PROTEIN

>  <Document ChEMBL ID>  (3) 
CHEMBL2150859

>  <Source Description>  (3) 
Scientific Literature

>  <Document Journal>  (3) 
J Med Chem

>  <Document Year>  (3) 
2012.0

>  <Active>  (3) 
1.0

>  <bits>  (3) 
<rdkit.DataStructs.cDataStructs.ExplicitBitVect object at 0x00000159F54925E0>

>  <Group>  (3) 
G2

$$$$

     RDKit          2D

 37 41  0  0  0  0  0  0  0  0999 V2000
   -0.7500   -3.8971    0.0000 O   0  0  0  0  0  0  0  0  0  0  0  0
    0.7500   -3.8971    0.0000 C   0  0  0  0  0  0  0  0  0  0  0  0
    1.5000   -2.5981    0.0000 N   0  0  0  0  0  0  0  0  0  0  0  0
    0.7500   -1.2990    0.0000 C   0  0  0  0  0  0  0  0  0  0  0  0
    1.5000    0.0000    0.0000 C   0  0  0  0  0  0  0  0  0  0  0  0
    0.7500    1.2990    0.0000 C   0  0  0  0  0  0  0  0  0  0  0  0
    1.5000    2.5981    0.0000 O   0  0  0  0  0  0  0  0  0  0  0  0
    3.0000    2.5981    0.0000 C   0  0  0  0  0  0  0  0  0  0  0  0
    3.7500    1.2990    0.0000 C   0  0  0  0  0  0  0  0  0  0  0  0
    5.2500    1.2990    0.0000 C   0  0  0  0  0  0  0  0  0  0  0  0
    6.0000   -0.0000    0.0000 F   0  0  0  0  0  0  0  0  0  0  0  0
    6.0000    2.5981    0.0000 C   0  0  0  0  0  0  0  0  0  0  0  0
    7.5000    2.5981    0.0000 N   0  0  0  0  0  0  0  0  0  0  0  0
    8.2500    3.8971    0.0000 C   0  0  0  0  0  0  0  0  0  0  0  0
    7.5000    5.1962    0.0000 O   0  0  0  0  0  0  0  0  0  0  0  0
    9.7500    3.8971    0.0000 C   0  0  0  0  0  0  0  0  0  0  0  0
   10.0105    2.4199    0.0000 C   0  0  0  0  0  0  0  0  0  0  0  0
    8.8614    1.4557    0.0000 O   0  0  0  0  0  0  0  0  0  0  0  0
   11.4200    1.9069    0.0000 N   0  0  0  0  0  0  0  0  0  0  0  0
   11.6805    0.4297    0.0000 C   0  0  0  0  0  0  0  0  0  0  0  0
   10.5314   -0.5345    0.0000 C   0  0  0  0  0  0  0  0  0  0  0  0
   10.7919   -2.0117    0.0000 C   0  0  0  0  0  0  0  0  0  0  0  0
   12.2014   -2.5248    0.0000 C   0  0  0  0  0  0  0  0  0  0  0  0
   12.4619   -4.0020    0.0000 F   0  0  0  0  0  0  0  0  0  0  0  0
   13.3505   -1.5606    0.0000 C   0  0  0  0  0  0  0  0  0  0  0  0
   13.0900   -0.0834    0.0000 C   0  0  0  0  0  0  0  0  0  0  0  0
   11.1595    4.4101    0.0000 C   0  0  0  0  0  0  0  0  0  0  0  0
   10.0105    5.3743    0.0000 C   0  0  0  0  0  0  0  0  0  0  0  0
    5.2500    3.8971    0.0000 C   0  0  0  0  0  0  0  0  0  0  0  0
    3.7500    3.8971    0.0000 C   0  0  0  0  0  0  0  0  0  0  0  0
    3.0000    5.1962    0.0000 F   0  0  0  0  0  0  0  0  0  0  0  0
   -0.7500    1.2990    0.0000 C   0  0  0  0  0  0  0  0  0  0  0  0
   -1.5000    0.0000    0.0000 C   0  0  0  0  0  0  0  0  0  0  0  0
   -0.7500   -1.2990    0.0000 N   0  0  0  0  0  0  0  0  0  0  0  0
    1.5000   -5.1962    0.0000 C   0  0  0  0  0  0  0  0  0  0  0  0
    2.7990   -5.9462    0.0000 C   0  0  0  0  0  0  0  0  0  0  0  0
    1.5000   -6.6962    0.0000 C   0  0  0  0  0  0  0  0  0  0  0  0
  1  2  2  0
  2  3  1  0
  3  4  1  0
  4  5  2  0
  5  6  1  0
  6  7  1  0
  7  8  1  0
  8  9  2  0
  9 10  1  0
 10 11  1  0
 10 12  2  0
 12 13  1  0
 13 14  1  0
 14 15  2  0
 14 16  1  0
 16 17  1  0
 17 18  2  0
 17 19  1  0
 19 20  1  0
 20 21  2  0
 21 22  1  0
 22 23  2  0
 23 24  1  0
 23 25  1  0
 25 26  2  0
 16 27  1  0
 27 28  1  0
 12 29  1  0
 29 30  2  0
 30 31  1  0
  6 32  2  0
 32 33  1  0
 33 34  2  0
  2 35  1  0
 35 36  1  0
 36 37  1  0
 34  4  1  0
 37 35  1  0
 30  8  1  0
 28 16  1  0
 26 20  1  0
M  END
>  <Compound_ID>  (4) 
CHEMBL3545365

>  <Molecule Name>  (4) 
ALTIRATINIB

>  <Molecular Weight>  (4) 
510.47

>  <AlogP>  (4) 
5.0

>  <Smiles>  (4) 
O=C(Nc1cc(Oc2cc(F)c(NC(=O)C3(C(=O)Nc4ccc(F)cc4)CC3)cc2F)ccn1)C1CC1

>  <Standard Type>  (4) 
IC50

>  <Standard Relation>  (4) 
'='

>  <Standard Units>  (4) 
nM

>  <Standard Value>  (4) 
0.85

>  <Assay ChEMBL ID>  (4) 
CHEMBL3857926

>  <Assay Description>  (4) 
Inhibition of TrkA (unknown origin)

>  <BAO Format ID>  (4) 
BAO_0000357

>  <BAO Label>  (4) 
single protein format

>  <Assay Organism>  (4) 
Homo sapiens

>  <Target ChEMBL ID>  (4) 
CHEMBL2815

>  <Target Name>  (4) 
Nerve growth factor receptor Trk-A

>  <Target Organism>  (4) 
Homo sapiens

>  <Target Type>  (4) 
SINGLE PROTEIN

>  <Document ChEMBL ID>  (4) 
CHEMBL3856219

>  <Source Description>  (4) 
Scientific Literature

>  <Document Journal>  (4) 
J Med Chem

>  <Document Year>  (4) 
2016.0

>  <Active>  (4) 
1.0

>  <bits>  (4) 
<rdkit.DataStructs.cDataStructs.ExplicitBitVect object at 0x00000159F54921F0>

>  <Group>  (4) 
G2

$$$$

     RDKit          2D

 26 29  0  0  0  0  0  0  0  0999 V2000
   -4.3786   -5.1199    0.0000 C   0  0  0  0  0  0  0  0  0  0  0  0
   -2.9520   -4.6564    0.0000 C   0  0  0  0  0  0  0  0  0  0  0  0
   -1.8373   -5.6601    0.0000 O   0  0  0  0  0  0  0  0  0  0  0  0
   -2.6401   -3.1891    0.0000 N   0  0  0  0  0  0  0  0  0  0  0  0
   -1.2135   -2.7256    0.0000 C   0  0  0  0  0  0  0  0  0  0  0  0
   -0.0000   -3.6073    0.0000 C   0  0  0  0  0  0  0  0  0  0  0  0
    1.2135   -2.7256    0.0000 N   0  0  0  0  0  0  0  0  0  0  0  0
    0.7500   -1.2990    0.0000 C   0  0  0  0  0  0  0  0  0  0  0  0
    1.5000    0.0000    0.0000 C   0  0  0  0  0  0  0  0  0  0  0  0
    0.7500    1.2990    0.0000 C   0  0  0  0  0  0  0  0  0  0  0  0
   -0.7500    1.2990    0.0000 C   0  0  0  0  0  0  0  0  0  0  0  0
   -1.5000    2.5981    0.0000 N   0  0  0  0  0  0  0  0  0  0  0  0
   -2.9918    2.7549    0.0000 C   0  0  0  0  0  0  0  0  0  0  0  0
   -3.3037    4.2221    0.0000 C   0  0  0  0  0  0  0  0  0  0  0  0
   -2.0046    4.9721    0.0000 C   0  0  0  0  0  0  0  0  0  0  0  0
   -0.8899    3.9684    0.0000 C   0  0  0  0  0  0  0  0  0  0  0  0
    0.5773    4.2803    0.0000 C   0  0  0  0  0  0  0  0  0  0  0  0
    1.5810    3.1655    0.0000 C   0  0  0  0  0  0  0  0  0  0  0  0
    3.0482    3.4774    0.0000 C   0  0  0  0  0  0  0  0  0  0  0  0
    4.0519    2.3627    0.0000 F   0  0  0  0  0  0  0  0  0  0  0  0
    3.5118    4.9040    0.0000 C   0  0  0  0  0  0  0  0  0  0  0  0
    2.5081    6.0187    0.0000 C   0  0  0  0  0  0  0  0  0  0  0  0
    1.0409    5.7068    0.0000 C   0  0  0  0  0  0  0  0  0  0  0  0
    0.0372    6.8216    0.0000 F   0  0  0  0  0  0  0  0  0  0  0  0
   -1.5000    0.0000    0.0000 N   0  0  0  0  0  0  0  0  0  0  0  0
   -0.7500   -1.2990    0.0000 N   0  0  0  0  0  0  0  0  0  0  0  0
  1  2  1  0
  2  3  2  0
  2  4  1  0
  4  5  1  0
  5  6  2  0
  6  7  1  0
  7  8  2  0
  8  9  1  0
  9 10  2  0
 10 11  1  0
 11 12  1  0
 12 13  1  0
 13 14  1  0
 14 15  1  0
 15 16  1  0
 16 17  1  6
 17 18  2  0
 18 19  1  0
 19 20  1  0
 19 21  2  0
 21 22  1  0
 22 23  2  0
 23 24  1  0
 11 25  2  0
 25 26  1  0
 26  5  1  0
 26  8  1  0
 16 12  1  0
 23 17  1  0
M  END
>  <Compound_ID>  (5) 
CHEMBL4114141

>  <Molecule Name>  (5) 
nan

>  <Molecular Weight>  (5) 
357.36

>  <AlogP>  (5) 
3.31

>  <Smiles>  (5) 
CC(=O)Nc1cnc2ccc(N3CCC[C@@H]3c3cc(F)ccc3F)nn12

>  <Standard Type>  (5) 
IC50

>  <Standard Relation>  (5) 
'='

>  <Standard Units>  (5) 
nM

>  <Standard Value>  (5) 
5.4

>  <Assay ChEMBL ID>  (5) 
CHEMBL3887826

>  <Assay Description>  (5) 
ELISA Assay: An enzyme-linked immunosorbant assay (ELISA) was used to assess TrkA kinase activity in the presence of inhibitors. Immulon 4HBX 384-well microtiter plates (Thermo part #8755) were coated with a 0.025 mg/mL solution of poly (Glu, Ala, Tyr; 6:3:1; Sigma P3899). Various concentrations of test compound, 2.5 nM TrkA (Invitrogen Corp., histidine-tagged recombinant human TrkA, cytoplasmic domain), and 500 uM ATP were incubated for 25 minutes at ambient temperature in the coated plates while shaking. The assay buffer consisted of 25 mM MOPS pH 7.5, 0.005% (v/v) Triton X-100 and 5 mM MgCl2. The reaction mixture was removed from the plate by washing with PBS containing 0.1% (v/v) Tween 20. The phosphorylated reaction product was detected using 0.2 ug/mL of a phosphotyrosine specific monoclonal antibody (clone PY20) conjugated to horseradish peroxidase in conjunction with the TMB Peroxidase Substrate System (KPL).

>  <BAO Format ID>  (5) 
BAO_0000357

>  <BAO Label>  (5) 
single protein format

>  <Assay Organism>  (5) 
None

>  <Target ChEMBL ID>  (5) 
CHEMBL2815

>  <Target Name>  (5) 
Nerve growth factor receptor Trk-A

>  <Target Organism>  (5) 
Homo sapiens

>  <Target Type>  (5) 
SINGLE PROTEIN

>  <Document ChEMBL ID>  (5) 
CHEMBL3886465

>  <Source Description>  (5) 
BindingDB Database

>  <Document Journal>  (5) 
nan

>  <Document Year>  (5) 
2016.0

>  <Active>  (5) 
1.0

>  <bits>  (5) 
<rdkit.DataStructs.cDataStructs.ExplicitBitVect object at 0x00000159F5491930>

>  <Group>  (5) 
G2

$$$$

     RDKit          2D

 36 40  0  0  0  0  0  0  0  0999 V2000
   -2.1766   -4.6157    0.0000 C   0  0  0  0  0  0  0  0  0  0  0  0
   -2.6401   -3.1891    0.0000 C   0  0  0  0  0  0  0  0  0  0  0  0
   -3.1036   -1.7626    0.0000 C   0  0  0  0  0  0  0  0  0  0  0  0
   -4.0667   -3.6527    0.0000 C   0  0  0  0  0  0  0  0  0  0  0  0
   -5.1814   -2.6490    0.0000 O   0  0  0  0  0  0  0  0  0  0  0  0
   -1.2135   -2.7256    0.0000 N   0  0  0  0  0  0  0  0  0  0  0  0
   -0.0000   -3.6073    0.0000 C   0  0  0  0  0  0  0  0  0  0  0  0
    1.2135   -2.7256    0.0000 C   0  0  0  0  0  0  0  0  0  0  0  0
    2.6401   -3.1891    0.0000 C   0  0  0  0  0  0  0  0  0  0  0  0
    3.7548   -2.1855    0.0000 O   0  0  0  0  0  0  0  0  0  0  0  0
    2.9520   -4.6564    0.0000 C   0  0  0  0  0  0  0  0  0  0  0  0
    1.8373   -5.6601    0.0000 C   0  0  0  0  0  0  0  0  0  0  0  0
    2.1491   -7.1273    0.0000 N   0  0  0  0  0  0  0  0  0  0  0  0
    3.5757   -7.5908    0.0000 C   0  0  0  0  0  0  0  0  0  0  0  0
    4.6904   -6.5871    0.0000 C   0  0  0  0  0  0  0  0  0  0  0  0
    6.1170   -7.0506    0.0000 N   0  0  0  0  0  0  0  0  0  0  0  0
    6.4289   -8.5179    0.0000 C   0  0  0  0  0  0  0  0  0  0  0  0
    5.3142   -9.5216    0.0000 O   0  0  0  0  0  0  0  0  0  0  0  0
    7.8555   -8.9814    0.0000 C   0  0  0  0  0  0  0  0  0  0  0  0
    8.1673  -10.4486    0.0000 N   0  0  0  0  0  0  0  0  0  0  0  0
    7.1636  -11.5633    0.0000 C   0  0  0  0  0  0  0  0  0  0  0  0
    7.9136  -12.8624    0.0000 C   0  0  0  0  0  0  0  0  0  0  0  0
    7.4501  -14.2890    0.0000 C   0  0  0  0  0  0  0  0  0  0  0  0
    8.4538  -15.4037    0.0000 C   0  0  0  0  0  0  0  0  0  0  0  0
    9.9210  -15.0918    0.0000 C   0  0  0  0  0  0  0  0  0  0  0  0
   10.3846  -13.6652    0.0000 C   0  0  0  0  0  0  0  0  0  0  0  0
    9.3809  -12.5505    0.0000 C   0  0  0  0  0  0  0  0  0  0  0  0
    9.5377  -11.0587    0.0000 N   0  0  0  0  0  0  0  0  0  0  0  0
    4.3786   -5.1199    0.0000 C   0  0  0  0  0  0  0  0  0  0  0  0
    0.7500   -1.2990    0.0000 C   0  0  0  0  0  0  0  0  0  0  0  0
    1.5000    0.0000    0.0000 C   0  0  0  0  0  0  0  0  0  0  0  0
    0.7500    1.2990    0.0000 N   0  0  0  0  0  0  0  0  0  0  0  0
   -0.7500    1.2990    0.0000 C   0  0  0  0  0  0  0  0  0  0  0  0
   -1.5000    2.5981    0.0000 N   0  0  0  0  0  0  0  0  0  0  0  0
   -1.5000    0.0000    0.0000 N   0  0  0  0  0  0  0  0  0  0  0  0
   -0.7500   -1.2990    0.0000 C   0  0  0  0  0  0  0  0  0  0  0  0
  1  2  1  0
  2  3  1  0
  2  4  1  0
  4  5  1  0
  2  6  1  0
  6  7  1  0
  7  8  2  0
  8  9  1  0
  9 10  2  0
  9 11  1  0
 11 12  2  0
 12 13  1  0
 13 14  2  0
 14 15  1  0
 15 16  1  0
 16 17  1  0
 17 18  2  0
 17 19  1  0
 19 20  1  0
 20 21  1  0
 21 22  2  0
 22 23  1  0
 23 24  2  0
 24 25  1  0
 25 26  2  0
 26 27  1  0
 27 28  2  0
 15 29  2  0
  8 30  1  0
 30 31  2  0
 31 32  1  0
 32 33  2  0
 33 34  1  0
 33 35  1  0
 35 36  2  0
 36  6  1  0
 29 11  1  0
 36 30  1  0
 28 20  1  0
 27 22  1  0
M  END
>  <Compound_ID>  (6) 
CHEMBL3671427

>  <Molecule Name>  (6) 
nan

>  <Molecular Weight>  (6) 
484.52

>  <AlogP>  (6) 
2.36

>  <Smiles>  (6) 
CC(C)(CO)n1cc(C(=O)c2cncc(NC(=O)Cn3cc4ccccc4n3)c2)c2cnc(N)nc21

>  <Standard Type>  (6) 
IC50

>  <Standard Relation>  (6) 
'='

>  <Standard Units>  (6) 
nM

>  <Standard Value>  (6) 
4.4

>  <Assay ChEMBL ID>  (6) 
CHEMBL3887033

>  <Assay Description>  (6) 
Enzyme Assay: Isolated TRK Enzyme assays use the HTRF KinEASE-TK kit (Cisbio Cat# 62TK0PEJ) with recombinant His-tagged cytoplasmic domains of each TRK receptor sourced from Invitrogen (see table below). This activity-assay measures the phosphorylation of tyrosine residues within a substrate from the HTRF kit which has been validated by Cisbio for a variety of tyrosine kinases including the TRK receptors. Assay details: Target:TRKA; Invitrogen Cat# PV3144; Amino acids:aa 441-796; FAC enzyme:4nM; FAC ATP:40uM; Assay Reaction Time:35min.

>  <BAO Format ID>  (6) 
BAO_0000357

>  <BAO Label>  (6) 
single protein format

>  <Assay Organism>  (6) 
None

>  <Target ChEMBL ID>  (6) 
CHEMBL2815

>  <Target Name>  (6) 
Nerve growth factor receptor Trk-A

>  <Target Organism>  (6) 
Homo sapiens

>  <Target Type>  (6) 
SINGLE PROTEIN

>  <Document ChEMBL ID>  (6) 
CHEMBL3639348

>  <Source Description>  (6) 
BindingDB Database

>  <Document Journal>  (6) 
nan

>  <Document Year>  (6) 
2014.0

>  <Active>  (6) 
1.0

>  <bits>  (6) 
<rdkit.DataStructs.cDataStructs.ExplicitBitVect object at 0x00000159F54910E0>

>  <Group>  (6) 
G2

$$$$

     RDKit          2D

 36 40  0  0  0  0  0  0  0  0999 V2000
   -3.1036   -1.7626    0.0000 C   0  0  0  0  0  0  0  0  0  0  0  0
   -2.6401   -3.1891    0.0000 C   0  0  0  0  0  0  0  0  0  0  0  0
   -1.2135   -2.7256    0.0000 N   0  0  0  0  0  0  0  0  0  0  0  0
   -0.0000   -3.6073    0.0000 C   0  0  0  0  0  0  0  0  0  0  0  0
    1.2135   -2.7256    0.0000 C   0  0  0  0  0  0  0  0  0  0  0  0
    2.6401   -3.1891    0.0000 C   0  0  0  0  0  0  0  0  0  0  0  0
    3.7548   -2.1855    0.0000 O   0  0  0  0  0  0  0  0  0  0  0  0
    2.9520   -4.6564    0.0000 C   0  0  0  0  0  0  0  0  0  0  0  0
    1.8373   -5.6601    0.0000 C   0  0  0  0  0  0  0  0  0  0  0  0
    2.1491   -7.1273    0.0000 N   0  0  0  0  0  0  0  0  0  0  0  0
    3.5757   -7.5908    0.0000 C   0  0  0  0  0  0  0  0  0  0  0  0
    4.6904   -6.5871    0.0000 C   0  0  0  0  0  0  0  0  0  0  0  0
    6.1170   -7.0506    0.0000 N   0  0  0  0  0  0  0  0  0  0  0  0
    6.4289   -8.5179    0.0000 C   0  0  0  0  0  0  0  0  0  0  0  0
    5.3142   -9.5216    0.0000 O   0  0  0  0  0  0  0  0  0  0  0  0
    7.8555   -8.9814    0.0000 C   0  0  0  0  0  0  0  0  0  0  0  0
    8.1673  -10.4486    0.0000 C   0  0  0  0  0  0  0  0  0  0  0  0
    9.5939  -10.9121    0.0000 C   0  0  0  0  0  0  0  0  0  0  0  0
   10.7086   -9.9084    0.0000 C   0  0  0  0  0  0  0  0  0  0  0  0
   10.3968   -8.4412    0.0000 C   0  0  0  0  0  0  0  0  0  0  0  0
   11.5115   -7.4375    0.0000 O   0  0  0  0  0  0  0  0  0  0  0  0
   12.9381   -7.9010    0.0000 C   0  0  0  0  0  0  0  0  0  0  0  0
   14.3647   -8.3646    0.0000 F   0  0  0  0  0  0  0  0  0  0  0  0
   13.4016   -6.4745    0.0000 F   0  0  0  0  0  0  0  0  0  0  0  0
   12.4745   -9.3276    0.0000 F   0  0  0  0  0  0  0  0  0  0  0  0
    8.9702   -7.9777    0.0000 C   0  0  0  0  0  0  0  0  0  0  0  0
    4.3786   -5.1199    0.0000 C   0  0  0  0  0  0  0  0  0  0  0  0
    0.7500   -1.2990    0.0000 C   0  0  0  0  0  0  0  0  0  0  0  0
    1.5000    0.0000    0.0000 C   0  0  0  0  0  0  0  0  0  0  0  0
    0.7500    1.2990    0.0000 N   0  0  0  0  0  0  0  0  0  0  0  0
   -0.7500    1.2990    0.0000 C   0  0  0  0  0  0  0  0  0  0  0  0
   -1.5000    0.0000    0.0000 N   0  0  0  0  0  0  0  0  0  0  0  0
   -0.7500   -1.2990    0.0000 C   0  0  0  0  0  0  0  0  0  0  0  0
   -2.1766   -4.6157    0.0000 C   0  0  0  0  0  0  0  0  0  0  0  0
   -3.6032   -5.0793    0.0000 O   0  0  0  0  0  0  0  0  0  0  0  0
   -4.0667   -3.6527    0.0000 C   0  0  0  0  0  0  0  0  0  0  0  0
  1  2  1  0
  2  3  1  0
  3  4  1  0
  4  5  2  0
  5  6  1  0
  6  7  2  0
  6  8  1  0
  8  9  2  0
  9 10  1  0
 10 11  2  0
 11 12  1  0
 12 13  1  0
 13 14  1  0
 14 15  2  0
 14 16  1  0
 16 17  2  0
 17 18  1  0
 18 19  2  0
 19 20  1  0
 20 21  1  0
 21 22  1  0
 22 23  1  0
 22 24  1  0
 22 25  1  0
 20 26  2  0
 12 27  2  0
  5 28  1  0
 28 29  2  0
 29 30  1  0
 30 31  2  0
 31 32  1  0
 32 33  2  0
  2 34  1  0
 34 35  1  0
 35 36  1  0
 36  2  1  0
 33  3  1  0
 27  8  1  0
 33 28  1  0
 26 16  1  0
M  END
>  <Compound_ID>  (7) 
CHEMBL3671447

>  <Molecule Name>  (7) 
nan

>  <Molecular Weight>  (7) 
497.43

>  <AlogP>  (7) 
3.95

>  <Smiles>  (7) 
CC1(n2cc(C(=O)c3cncc(NC(=O)c4cccc(OC(F)(F)F)c4)c3)c3cncnc32)COC1

>  <Standard Type>  (7) 
IC50

>  <Standard Relation>  (7) 
'='

>  <Standard Units>  (7) 
nM

>  <Standard Value>  (7) 
3.09

>  <Assay ChEMBL ID>  (7) 
CHEMBL3887033

>  <Assay Description>  (7) 
Enzyme Assay: Isolated TRK Enzyme assays use the HTRF KinEASE-TK kit (Cisbio Cat# 62TK0PEJ) with recombinant His-tagged cytoplasmic domains of each TRK receptor sourced from Invitrogen (see table below). This activity-assay measures the phosphorylation of tyrosine residues within a substrate from the HTRF kit which has been validated by Cisbio for a variety of tyrosine kinases including the TRK receptors. Assay details: Target:TRKA; Invitrogen Cat# PV3144; Amino acids:aa 441-796; FAC enzyme:4nM; FAC ATP:40uM; Assay Reaction Time:35min.

>  <BAO Format ID>  (7) 
BAO_0000357

>  <BAO Label>  (7) 
single protein format

>  <Assay Organism>  (7) 
None

>  <Target ChEMBL ID>  (7) 
CHEMBL2815

>  <Target Name>  (7) 
Nerve growth factor receptor Trk-A

>  <Target Organism>  (7) 
Homo sapiens

>  <Target Type>  (7) 
SINGLE PROTEIN

>  <Document ChEMBL ID>  (7) 
CHEMBL3639348

>  <Source Description>  (7) 
BindingDB Database

>  <Document Journal>  (7) 
nan

>  <Document Year>  (7) 
2014.0

>  <Active>  (7) 
1.0

>  <bits>  (7) 
<rdkit.DataStructs.cDataStructs.ExplicitBitVect object at 0x00000159F5491070>

>  <Group>  (7) 
G2

$$$$

     RDKit          2D

 33 36  0  0  0  0  0  0  0  0999 V2000
   -2.1766   -4.6157    0.0000 C   0  0  0  0  0  0  0  0  0  0  0  0
   -2.6401   -3.1891    0.0000 C   0  0  0  0  0  0  0  0  0  0  0  0
   -3.1036   -1.7626    0.0000 C   0  0  0  0  0  0  0  0  0  0  0  0
   -4.0667   -3.6527    0.0000 C   0  0  0  0  0  0  0  0  0  0  0  0
   -1.2135   -2.7256    0.0000 N   0  0  0  0  0  0  0  0  0  0  0  0
   -0.0000   -3.6073    0.0000 C   0  0  0  0  0  0  0  0  0  0  0  0
    1.2135   -2.7256    0.0000 C   0  0  0  0  0  0  0  0  0  0  0  0
    2.6401   -3.1891    0.0000 C   0  0  0  0  0  0  0  0  0  0  0  0
    3.7548   -2.1855    0.0000 O   0  0  0  0  0  0  0  0  0  0  0  0
    2.9520   -4.6564    0.0000 C   0  0  0  0  0  0  0  0  0  0  0  0
    1.8373   -5.6601    0.0000 C   0  0  0  0  0  0  0  0  0  0  0  0
    2.1491   -7.1273    0.0000 N   0  0  0  0  0  0  0  0  0  0  0  0
    3.5757   -7.5908    0.0000 C   0  0  0  0  0  0  0  0  0  0  0  0
    4.6904   -6.5871    0.0000 C   0  0  0  0  0  0  0  0  0  0  0  0
    6.1170   -7.0506    0.0000 N   0  0  0  0  0  0  0  0  0  0  0  0
    6.4289   -8.5179    0.0000 C   0  0  0  0  0  0  0  0  0  0  0  0
    5.3142   -9.5216    0.0000 O   0  0  0  0  0  0  0  0  0  0  0  0
    7.8555   -8.9814    0.0000 C   0  0  0  0  0  0  0  0  0  0  0  0
    8.1673  -10.4486    0.0000 C   0  0  0  0  0  0  0  0  0  0  0  0
    7.0526  -11.4523    0.0000 C   0  0  0  0  0  0  0  0  0  0  0  0
    7.3645  -12.9195    0.0000 C   0  0  0  0  0  0  0  0  0  0  0  0
    8.7911  -13.3831    0.0000 C   0  0  0  0  0  0  0  0  0  0  0  0
    9.1029  -14.8503    0.0000 Br  0  0  0  0  0  0  0  0  0  0  0  0
    9.9058  -12.3794    0.0000 C   0  0  0  0  0  0  0  0  0  0  0  0
    9.5939  -10.9121    0.0000 N   0  0  0  0  0  0  0  0  0  0  0  0
    4.3786   -5.1199    0.0000 C   0  0  0  0  0  0  0  0  0  0  0  0
    0.7500   -1.2990    0.0000 C   0  0  0  0  0  0  0  0  0  0  0  0
    1.5000    0.0000    0.0000 C   0  0  0  0  0  0  0  0  0  0  0  0
    0.7500    1.2990    0.0000 N   0  0  0  0  0  0  0  0  0  0  0  0
   -0.7500    1.2990    0.0000 C   0  0  0  0  0  0  0  0  0  0  0  0
   -1.5000    2.5981    0.0000 N   0  0  0  0  0  0  0  0  0  0  0  0
   -1.5000    0.0000    0.0000 N   0  0  0  0  0  0  0  0  0  0  0  0
   -0.7500   -1.2990    0.0000 C   0  0  0  0  0  0  0  0  0  0  0  0
  1  2  1  0
  2  3  1  0
  2  4  1  0
  2  5  1  0
  5  6  1  0
  6  7  2  0
  7  8  1  0
  8  9  2  0
  8 10  1  0
 10 11  2  0
 11 12  1  0
 12 13  2  0
 13 14  1  0
 14 15  1  0
 15 16  1  0
 16 17  2  0
 16 18  1  0
 18 19  1  0
 19 20  2  0
 20 21  1  0
 21 22  2  0
 22 23  1  0
 22 24  1  0
 24 25  2  0
 14 26  2  0
  7 27  1  0
 27 28  2  0
 28 29  1  0
 29 30  2  0
 30 31  1  0
 30 32  1  0
 32 33  2  0
 33  5  1  0
 26 10  1  0
 33 27  1  0
 25 19  1  0
M  END
>  <Compound_ID>  (8) 
CHEMBL3671405

>  <Molecule Name>  (8) 
nan

>  <Molecular Weight>  (8) 
508.38

>  <AlogP>  (8) 
3.73

>  <Smiles>  (8) 
CC(C)(C)n1cc(C(=O)c2cncc(NC(=O)Cc3ccc(Br)cn3)c2)c2cnc(N)nc21

>  <Standard Type>  (8) 
IC50

>  <Standard Relation>  (8) 
'='

>  <Standard Units>  (8) 
nM

>  <Standard Value>  (8) 
3.93

>  <Assay ChEMBL ID>  (8) 
CHEMBL3887033

>  <Assay Description>  (8) 
Enzyme Assay: Isolated TRK Enzyme assays use the HTRF KinEASE-TK kit (Cisbio Cat# 62TK0PEJ) with recombinant His-tagged cytoplasmic domains of each TRK receptor sourced from Invitrogen (see table below). This activity-assay measures the phosphorylation of tyrosine residues within a substrate from the HTRF kit which has been validated by Cisbio for a variety of tyrosine kinases including the TRK receptors. Assay details: Target:TRKA; Invitrogen Cat# PV3144; Amino acids:aa 441-796; FAC enzyme:4nM; FAC ATP:40uM; Assay Reaction Time:35min.

>  <BAO Format ID>  (8) 
BAO_0000357

>  <BAO Label>  (8) 
single protein format

>  <Assay Organism>  (8) 
None

>  <Target ChEMBL ID>  (8) 
CHEMBL2815

>  <Target Name>  (8) 
Nerve growth factor receptor Trk-A

>  <Target Organism>  (8) 
Homo sapiens

>  <Target Type>  (8) 
SINGLE PROTEIN

>  <Document ChEMBL ID>  (8) 
CHEMBL3639348

>  <Source Description>  (8) 
BindingDB Database

>  <Document Journal>  (8) 
nan

>  <Document Year>  (8) 
2014.0

>  <Active>  (8) 
1.0

>  <bits>  (8) 
<rdkit.DataStructs.cDataStructs.ExplicitBitVect object at 0x00000159F5492960>

>  <Group>  (8) 
G2

$$$$

     RDKit          2D

 36 41  0  0  0  0  0  0  0  0999 V2000
    9.5939  -10.9121    0.0000 C   0  0  0  0  0  0  0  0  0  0  0  0
    8.1673  -10.4486    0.0000 C   0  0  0  0  0  0  0  0  0  0  0  0
    7.8555   -8.9814    0.0000 O   0  0  0  0  0  0  0  0  0  0  0  0
    6.4289   -8.5179    0.0000 C   0  0  0  0  0  0  0  0  0  0  0  0
    5.3142   -9.5216    0.0000 O   0  0  0  0  0  0  0  0  0  0  0  0
    6.1170   -7.0506    0.0000 C   0  0  0  0  0  0  0  0  0  0  0  0
    4.6904   -6.5871    0.0000 N   0  0  0  0  0  0  0  0  0  0  0  0
    4.3786   -5.1199    0.0000 C   0  0  0  0  0  0  0  0  0  0  0  0
    5.4933   -4.1162    0.0000 O   0  0  0  0  0  0  0  0  0  0  0  0
    2.9520   -4.6564    0.0000 O   0  0  0  0  0  0  0  0  0  0  0  0
    2.6401   -3.1891    0.0000 C   0  0  0  0  0  0  0  0  0  0  0  0
    3.7548   -2.1855    0.0000 C   0  0  0  0  0  0  0  0  0  0  0  0
    1.2135   -2.7256    0.0000 C   0  0  0  0  0  0  0  0  0  0  0  0
    0.7500   -1.2990    0.0000 C   0  0  0  0  0  0  0  0  0  0  0  0
    1.5000    0.0000    0.0000 C   0  0  0  0  0  0  0  0  0  0  0  0
    0.7500    1.2990    0.0000 C   0  0  0  0  0  0  0  0  0  0  0  0
   -0.7500    1.2990    0.0000 C   0  0  0  0  0  0  0  0  0  0  0  0
   -1.5000    0.0000    0.0000 C   0  0  0  0  0  0  0  0  0  0  0  0
   -0.7500   -1.2990    0.0000 C   0  0  0  0  0  0  0  0  0  0  0  0
   -1.2135   -2.7256    0.0000 C   0  0  0  0  0  0  0  0  0  0  0  0
   -2.5838   -3.3357    0.0000 C   0  0  0  0  0  0  0  0  0  0  0  0
   -2.7406   -4.8275    0.0000 C   0  0  0  0  0  0  0  0  0  0  0  0
   -1.5271   -5.7092    0.0000 C   0  0  0  0  0  0  0  0  0  0  0  0
   -0.1568   -5.0991    0.0000 C   0  0  0  0  0  0  0  0  0  0  0  0
    0.8469   -6.2138    0.0000 N   0  0  0  0  0  0  0  0  0  0  0  0
    0.0969   -7.5128    0.0000 C   0  0  0  0  0  0  0  0  0  0  0  0
    0.5604   -8.9394    0.0000 C   0  0  0  0  0  0  0  0  0  0  0  0
   -0.4433  -10.0541    0.0000 C   0  0  0  0  0  0  0  0  0  0  0  0
   -1.9105   -9.7423    0.0000 C   0  0  0  0  0  0  0  0  0  0  0  0
   -2.3740   -8.3157    0.0000 C   0  0  0  0  0  0  0  0  0  0  0  0
   -1.3703   -7.2010    0.0000 C   0  0  0  0  0  0  0  0  0  0  0  0
   -0.0000   -3.6073    0.0000 C   0  0  0  0  0  0  0  0  0  0  0  0
   -4.2079   -5.1394    0.0000 C   0  0  0  0  0  0  0  0  0  0  0  0
   -4.9579   -3.8403    0.0000 N   0  0  0  0  0  0  0  0  0  0  0  0
   -3.9542   -2.7256    0.0000 C   0  0  0  0  0  0  0  0  0  0  0  0
   -4.2660   -1.2584    0.0000 O   0  0  0  0  0  0  0  0  0  0  0  0
  1  2  1  0
  2  3  1  0
  3  4  1  0
  4  5  2  0
  4  6  1  0
  6  7  1  0
  7  8  1  0
  8  9  2  0
  8 10  1  0
 10 11  1  0
 11 12  1  6
 11 13  1  0
 13 14  1  6
 14 15  2  0
 15 16  1  0
 16 17  2  0
 17 18  1  0
 18 19  2  0
 19 20  1  0
 20 21  2  0
 21 22  1  0
 22 23  2  0
 23 24  1  0
 24 25  1  0
 25 26  1  0
 26 27  2  0
 27 28  1  0
 28 29  2  0
 29 30  1  0
 30 31  2  0
 24 32  2  0
 22 33  1  0
 33 34  1  0
 34 35  1  0
 35 36  2  0
 32 13  1  0
 19 14  1  0
 32 20  1  0
 35 21  1  0
 31 23  1  0
 31 26  1  0
M  END
>  <Compound_ID>  (9) 
CHEMBL256119

>  <Molecule Name>  (9) 
nan

>  <Molecular Weight>  (9) 
483.52

>  <AlogP>  (9) 
4.35

>  <Smiles>  (9) 
CCOC(=O)CNC(=O)O[C@@H](C)[C@H]1c2ccccc2-c2c3c(c4c([nH]c5ccccc54)c21)CNC3=O

>  <Standard Type>  (9) 
IC50

>  <Standard Relation>  (9) 
'='

>  <Standard Units>  (9) 
nM

>  <Standard Value>  (9) 
49.0

>  <Assay ChEMBL ID>  (9) 
CHEMBL934847

>  <Assay Description>  (9) 
Inhibition of human recombinant TrkA

>  <BAO Format ID>  (9) 
BAO_0000357

>  <BAO Label>  (9) 
single protein format

>  <Assay Organism>  (9) 
Homo sapiens

>  <Target ChEMBL ID>  (9) 
CHEMBL2815

>  <Target Name>  (9) 
Nerve growth factor receptor Trk-A

>  <Target Organism>  (9) 
Homo sapiens

>  <Target Type>  (9) 
SINGLE PROTEIN

>  <Document ChEMBL ID>  (9) 
CHEMBL1145586

>  <Source Description>  (9) 
Scientific Literature

>  <Document Journal>  (9) 
Bioorg Med Chem Lett

>  <Document Year>  (9) 
2008.0

>  <Active>  (9) 
1.0

>  <bits>  (9) 
<rdkit.DataStructs.cDataStructs.ExplicitBitVect object at 0x00000159F54933E0>

>  <Group>  (9) 
G2

$$$$

     RDKit          2D

 31 35  0  0  0  0  0  0  0  0999 V2000
   -2.9520   -4.6564    0.0000 C   0  0  0  0  0  0  0  0  0  0  0  0
   -2.6401   -3.1891    0.0000 C   0  0  0  0  0  0  0  0  0  0  0  0
   -3.7548   -2.1855    0.0000 C   0  0  0  0  0  0  0  0  0  0  0  0
   -1.2135   -2.7256    0.0000 N   0  0  0  0  0  0  0  0  0  0  0  0
   -0.0000   -3.6073    0.0000 C   0  0  0  0  0  0  0  0  0  0  0  0
    1.2135   -2.7256    0.0000 C   0  0  0  0  0  0  0  0  0  0  0  0
    2.6401   -3.1891    0.0000 C   0  0  0  0  0  0  0  0  0  0  0  0
    3.7548   -2.1855    0.0000 O   0  0  0  0  0  0  0  0  0  0  0  0
    2.9520   -4.6564    0.0000 C   0  0  0  0  0  0  0  0  0  0  0  0
    1.8373   -5.6601    0.0000 C   0  0  0  0  0  0  0  0  0  0  0  0
    2.1491   -7.1273    0.0000 N   0  0  0  0  0  0  0  0  0  0  0  0
    3.5757   -7.5908    0.0000 C   0  0  0  0  0  0  0  0  0  0  0  0
    4.6904   -6.5871    0.0000 C   0  0  0  0  0  0  0  0  0  0  0  0
    6.1170   -7.0506    0.0000 N   0  0  0  0  0  0  0  0  0  0  0  0
    6.4289   -8.5179    0.0000 C   0  0  0  0  0  0  0  0  0  0  0  0
    5.3142   -9.5216    0.0000 O   0  0  0  0  0  0  0  0  0  0  0  0
    7.8555   -8.9814    0.0000 C   0  0  0  0  0  0  0  0  0  0  0  0
    9.0690   -8.0997    0.0000 C   0  0  0  0  0  0  0  0  0  0  0  0
   10.2825   -8.9814    0.0000 C   0  0  0  0  0  0  0  0  0  0  0  0
   11.7091   -8.5179    0.0000 C   0  0  0  0  0  0  0  0  0  0  0  0
   12.7128   -7.4031    0.0000 C   0  0  0  0  0  0  0  0  0  0  0  0
   13.1763   -8.8297    0.0000 C   0  0  0  0  0  0  0  0  0  0  0  0
    9.8190  -10.4080    0.0000 N   0  0  0  0  0  0  0  0  0  0  0  0
    8.3190  -10.4080    0.0000 N   0  0  0  0  0  0  0  0  0  0  0  0
    4.3786   -5.1199    0.0000 C   0  0  0  0  0  0  0  0  0  0  0  0
    0.7500   -1.2990    0.0000 C   0  0  0  0  0  0  0  0  0  0  0  0
    1.5000    0.0000    0.0000 C   0  0  0  0  0  0  0  0  0  0  0  0
    0.7500    1.2990    0.0000 N   0  0  0  0  0  0  0  0  0  0  0  0
   -0.7500    1.2990    0.0000 C   0  0  0  0  0  0  0  0  0  0  0  0
   -1.5000    0.0000    0.0000 N   0  0  0  0  0  0  0  0  0  0  0  0
   -0.7500   -1.2990    0.0000 C   0  0  0  0  0  0  0  0  0  0  0  0
  1  2  1  0
  2  3  1  0
  2  4  1  0
  4  5  1  0
  5  6  2  0
  6  7  1  0
  7  8  2  0
  7  9  1  0
  9 10  2  0
 10 11  1  0
 11 12  2  0
 12 13  1  0
 13 14  1  0
 14 15  1  0
 15 16  2  0
 15 17  1  0
 17 18  2  0
 18 19  1  0
 19 20  1  0
 20 21  1  0
 21 22  1  0
 19 23  2  0
 23 24  1  0
 13 25  2  0
  6 26  1  0
 26 27  2  0
 27 28  1  0
 28 29  2  0
 29 30  1  0
 30 31  2  0
 31  4  1  0
 25  9  1  0
 31 26  1  0
 24 17  1  0
 22 20  1  0
M  END
>  <Compound_ID>  (10) 
CHEMBL3671378

>  <Molecule Name>  (10) 
nan

>  <Molecular Weight>  (10) 
415.46

>  <AlogP>  (10) 
3.49

>  <Smiles>  (10) 
CC(C)n1cc(C(=O)c2cncc(NC(=O)c3cc(C4CC4)n[nH]3)c2)c2cncnc21

>  <Standard Type>  (10) 
IC50

>  <Standard Relation>  (10) 
'='

>  <Standard Units>  (10) 
nM

>  <Standard Value>  (10) 
43.5

>  <Assay ChEMBL ID>  (10) 
CHEMBL3887033

>  <Assay Description>  (10) 
Enzyme Assay: Isolated TRK Enzyme assays use the HTRF KinEASE-TK kit (Cisbio Cat# 62TK0PEJ) with recombinant His-tagged cytoplasmic domains of each TRK receptor sourced from Invitrogen (see table below). This activity-assay measures the phosphorylation of tyrosine residues within a substrate from the HTRF kit which has been validated by Cisbio for a variety of tyrosine kinases including the TRK receptors. Assay details: Target:TRKA; Invitrogen Cat# PV3144; Amino acids:aa 441-796; FAC enzyme:4nM; FAC ATP:40uM; Assay Reaction Time:35min.

>  <BAO Format ID>  (10) 
BAO_0000357

>  <BAO Label>  (10) 
single protein format

>  <Assay Organism>  (10) 
None

>  <Target ChEMBL ID>  (10) 
CHEMBL2815

>  <Target Name>  (10) 
Nerve growth factor receptor Trk-A

>  <Target Organism>  (10) 
Homo sapiens

>  <Target Type>  (10) 
SINGLE PROTEIN

>  <Document ChEMBL ID>  (10) 
CHEMBL3639348

>  <Source Description>  (10) 
BindingDB Database

>  <Document Journal>  (10) 
nan

>  <Document Year>  (10) 
2014.0

>  <Active>  (10) 
1.0

>  <bits>  (10) 
<rdkit.DataStructs.cDataStructs.ExplicitBitVect object at 0x00000159F5492A40>

>  <Group>  (10) 
G2

$$$$

     RDKit          2D

 34 38  0  0  0  0  0  0  0  0999 V2000
   -2.9520   -4.6564    0.0000 C   0  0  0  0  0  0  0  0  0  0  0  0
   -2.6401   -3.1891    0.0000 C   0  0  0  0  0  0  0  0  0  0  0  0
   -3.7548   -2.1855    0.0000 C   0  0  0  0  0  0  0  0  0  0  0  0
   -5.1814   -2.6490    0.0000 O   0  0  0  0  0  0  0  0  0  0  0  0
   -1.2135   -2.7256    0.0000 N   0  0  0  0  0  0  0  0  0  0  0  0
   -0.0000   -3.6073    0.0000 C   0  0  0  0  0  0  0  0  0  0  0  0
    1.2135   -2.7256    0.0000 C   0  0  0  0  0  0  0  0  0  0  0  0
    2.6401   -3.1891    0.0000 C   0  0  0  0  0  0  0  0  0  0  0  0
    3.7548   -2.1855    0.0000 O   0  0  0  0  0  0  0  0  0  0  0  0
    2.9520   -4.6564    0.0000 C   0  0  0  0  0  0  0  0  0  0  0  0
    1.8373   -5.6601    0.0000 C   0  0  0  0  0  0  0  0  0  0  0  0
    2.1491   -7.1273    0.0000 N   0  0  0  0  0  0  0  0  0  0  0  0
    3.5757   -7.5908    0.0000 C   0  0  0  0  0  0  0  0  0  0  0  0
    4.6904   -6.5871    0.0000 C   0  0  0  0  0  0  0  0  0  0  0  0
    6.1170   -7.0506    0.0000 N   0  0  0  0  0  0  0  0  0  0  0  0
    6.4289   -8.5179    0.0000 C   0  0  0  0  0  0  0  0  0  0  0  0
    5.3142   -9.5216    0.0000 O   0  0  0  0  0  0  0  0  0  0  0  0
    7.8555   -8.9814    0.0000 C   0  0  0  0  0  0  0  0  0  0  0  0
    8.1673  -10.4486    0.0000 N   0  0  0  0  0  0  0  0  0  0  0  0
    9.5377  -11.0587    0.0000 C   0  0  0  0  0  0  0  0  0  0  0  0
    9.3809  -12.5505    0.0000 C   0  0  0  0  0  0  0  0  0  0  0  0
    7.9136  -12.8624    0.0000 C   0  0  0  0  0  0  0  0  0  0  0  0
    7.3035  -14.2327    0.0000 C   0  0  0  0  0  0  0  0  0  0  0  0
    7.4603  -15.7245    0.0000 C   0  0  0  0  0  0  0  0  0  0  0  0
    6.0900  -15.1144    0.0000 C   0  0  0  0  0  0  0  0  0  0  0  0
    7.1636  -11.5633    0.0000 N   0  0  0  0  0  0  0  0  0  0  0  0
    4.3786   -5.1199    0.0000 C   0  0  0  0  0  0  0  0  0  0  0  0
    0.7500   -1.2990    0.0000 C   0  0  0  0  0  0  0  0  0  0  0  0
    1.5000    0.0000    0.0000 C   0  0  0  0  0  0  0  0  0  0  0  0
    0.7500    1.2990    0.0000 N   0  0  0  0  0  0  0  0  0  0  0  0
   -0.7500    1.2990    0.0000 C   0  0  0  0  0  0  0  0  0  0  0  0
   -1.5000    0.0000    0.0000 C   0  0  0  0  0  0  0  0  0  0  0  0
   -3.0000    0.0000    0.0000 F   0  0  0  0  0  0  0  0  0  0  0  0
   -0.7500   -1.2990    0.0000 C   0  0  0  0  0  0  0  0  0  0  0  0
  1  2  1  0
  2  3  1  0
  3  4  1  0
  2  5  1  0
  5  6  1  0
  6  7  2  0
  7  8  1  0
  8  9  2  0
  8 10  1  0
 10 11  2  0
 11 12  1  0
 12 13  2  0
 13 14  1  0
 14 15  1  0
 15 16  1  0
 16 17  2  0
 16 18  1  0
 18 19  1  0
 19 20  1  0
 20 21  2  0
 21 22  1  0
 22 23  1  0
 23 24  1  0
 24 25  1  0
 22 26  2  0
 14 27  2  0
  7 28  1  0
 28 29  2  0
 29 30  1  0
 30 31  2  0
 31 32  1  0
 32 33  1  0
 32 34  2  0
 34  5  1  0
 27 10  1  0
 34 28  1  0
 26 19  1  0
 25 23  1  0
M  END
>  <Compound_ID>  (11) 
CHEMBL3935836

>  <Molecule Name>  (11) 
nan

>  <Molecular Weight>  (11) 
462.49

>  <AlogP>  (11) 
3.07

>  <Smiles>  (11) 
CC(CO)n1cc(C(=O)c2cncc(NC(=O)Cn3ccc(C4CC4)n3)c2)c2cncc(F)c21

>  <Standard Type>  (11) 
IC50

>  <Standard Relation>  (11) 
'='

>  <Standard Units>  (11) 
nM

>  <Standard Value>  (11) 
62.0

>  <Assay ChEMBL ID>  (11) 
CHEMBL3887111

>  <Assay Description>  (11) 
HTRF Assay: Isolated TRK Enzyme assays use the HTRF KinEASE-TK kit (Cisbio Cat#62TK0PEJ) with recombinant His-tagged cytoplasmic domains of each TRK receptor sourced from Invitrogen (see table below). This activity-assay measures the phosphorylation of tyrosine residues within a substrate from the HTRF kit which has been validated by Cisbio for a variety of tyrosine kinases including the TRK receptors.Assay Details: Invitrogen Amino FAC FAC Assay ReactionTarget Cat# acids enzyme ATP TimeTRKA PV3144 aa 441-4 nM 40 uM 35 min (NTRK1) 796 TRKB PV3616 aa 526-1 nM 1.4 uM 40 min (NTRK2) 838 TRKC PV3617 aa 510- 10 nM 15 uM 30 min (NTRK3) 8250.5 mM stock solutions of test compounds are prepared and serially diluted in 100% DMSO. A standard curve using the compound of Example 135 disclosed in WO2005/116035 of 150 uM is also prepared on each test plate. High percentage effect (HPE) is defined by 150 uM.

>  <BAO Format ID>  (11) 
BAO_0000357

>  <BAO Label>  (11) 
single protein format

>  <Assay Organism>  (11) 
None

>  <Target ChEMBL ID>  (11) 
CHEMBL2815

>  <Target Name>  (11) 
Nerve growth factor receptor Trk-A

>  <Target Organism>  (11) 
Homo sapiens

>  <Target Type>  (11) 
SINGLE PROTEIN

>  <Document ChEMBL ID>  (11) 
CHEMBL3886170

>  <Source Description>  (11) 
BindingDB Database

>  <Document Journal>  (11) 
nan

>  <Document Year>  (11) 
2015.0

>  <Active>  (11) 
1.0

>  <bits>  (11) 
<rdkit.DataStructs.cDataStructs.ExplicitBitVect object at 0x00000159F5492880>

>  <Group>  (11) 
G2

$$$$

     RDKit          2D

 37 41  0  0  0  0  0  0  0  0999 V2000
  -11.7922  -11.0699    0.0000 C   0  0  0  0  0  0  0  0  0  0  0  0
  -12.1041   -9.6027    0.0000 N   0  0  0  0  0  0  0  0  0  0  0  0
  -11.1004   -8.4880    0.0000 C   0  0  0  0  0  0  0  0  0  0  0  0
  -11.8504   -7.1890    0.0000 C   0  0  0  0  0  0  0  0  0  0  0  0
  -11.2403   -5.8186    0.0000 N   0  0  0  0  0  0  0  0  0  0  0  0
  -11.9903   -4.5196    0.0000 N   0  0  0  0  0  0  0  0  0  0  0  0
  -10.9866   -3.4049    0.0000 C   0  0  0  0  0  0  0  0  0  0  0  0
  -11.2984   -1.9377    0.0000 C   0  0  0  0  0  0  0  0  0  0  0  0
   -9.8312   -1.6258    0.0000 C   0  0  0  0  0  0  0  0  0  0  0  0
  -12.7656   -2.2495    0.0000 C   0  0  0  0  0  0  0  0  0  0  0  0
  -11.6103   -0.4704    0.0000 C   0  0  0  0  0  0  0  0  0  0  0  0
   -9.6162   -4.0150    0.0000 C   0  0  0  0  0  0  0  0  0  0  0  0
   -9.7730   -5.5068    0.0000 C   0  0  0  0  0  0  0  0  0  0  0  0
   -8.6583   -6.5105    0.0000 N   0  0  0  0  0  0  0  0  0  0  0  0
   -7.2317   -6.0469    0.0000 C   0  0  0  0  0  0  0  0  0  0  0  0
   -6.9199   -4.5797    0.0000 O   0  0  0  0  0  0  0  0  0  0  0  0
   -6.1170   -7.0506    0.0000 N   0  0  0  0  0  0  0  0  0  0  0  0
   -4.6904   -6.5871    0.0000 C   0  0  0  0  0  0  0  0  0  0  0  0
   -3.5757   -7.5908    0.0000 C   0  0  0  0  0  0  0  0  0  0  0  0
   -2.1491   -7.1273    0.0000 N   0  0  0  0  0  0  0  0  0  0  0  0
   -1.8373   -5.6601    0.0000 C   0  0  0  0  0  0  0  0  0  0  0  0
   -2.9520   -4.6564    0.0000 C   0  0  0  0  0  0  0  0  0  0  0  0
   -2.6401   -3.1891    0.0000 C   0  0  0  0  0  0  0  0  0  0  0  0
   -3.7548   -2.1855    0.0000 O   0  0  0  0  0  0  0  0  0  0  0  0
   -1.2135   -2.7256    0.0000 C   0  0  0  0  0  0  0  0  0  0  0  0
   -0.0000   -3.6073    0.0000 C   0  0  0  0  0  0  0  0  0  0  0  0
    1.2135   -2.7256    0.0000 N   0  0  0  0  0  0  0  0  0  0  0  0
    2.6401   -3.1891    0.0000 C   0  0  0  0  0  0  0  0  0  0  0  0
    0.7500   -1.2990    0.0000 C   0  0  0  0  0  0  0  0  0  0  0  0
    1.5000    0.0000    0.0000 N   0  0  0  0  0  0  0  0  0  0  0  0
    0.7500    1.2990    0.0000 C   0  0  0  0  0  0  0  0  0  0  0  0
   -0.7500    1.2990    0.0000 N   0  0  0  0  0  0  0  0  0  0  0  0
   -1.5000    0.0000    0.0000 C   0  0  0  0  0  0  0  0  0  0  0  0
   -0.7500   -1.2990    0.0000 C   0  0  0  0  0  0  0  0  0  0  0  0
   -4.3786   -5.1199    0.0000 C   0  0  0  0  0  0  0  0  0  0  0  0
  -13.3176   -7.5008    0.0000 C   0  0  0  0  0  0  0  0  0  0  0  0
  -13.4744   -8.9926    0.0000 N   0  0  0  0  0  0  0  0  0  0  0  0
  1  2  1  0
  2  3  1  0
  3  4  2  0
  4  5  1  0
  5  6  1  0
  6  7  2  0
  7  8  1  0
  8  9  1  0
  8 10  1  0
  8 11  1  0
  7 12  1  0
 12 13  2  0
 13 14  1  0
 14 15  1  0
 15 16  2  0
 15 17  1  0
 17 18  1  0
 18 19  2  0
 19 20  1  0
 20 21  2  0
 21 22  1  0
 22 23  1  0
 23 24  2  0
 23 25  1  0
 25 26  2  0
 26 27  1  0
 27 28  1  0
 27 29  1  0
 29 30  2  0
 30 31  1  0
 31 32  2  0
 32 33  1  0
 33 34  2  0
 22 35  2  0
  4 36  1  0
 36 37  2  0
 37  2  1  0
 13  5  1  0
 35 18  1  0
 34 25  1  0
 34 29  1  0
M  END
>  <Compound_ID>  (12) 
CHEMBL3671467

>  <Molecule Name>  (12) 
nan

>  <Molecular Weight>  (12) 
498.55

>  <AlogP>  (12) 
3.46

>  <Smiles>  (12) 
Cn1cc(-n2nc(C(C)(C)C)cc2NC(=O)Nc2cncc(C(=O)c3cn(C)c4ncncc34)c2)cn1

>  <Standard Type>  (12) 
IC50

>  <Standard Relation>  (12) 
'='

>  <Standard Units>  (12) 
nM

>  <Standard Value>  (12) 
4.64

>  <Assay ChEMBL ID>  (12) 
CHEMBL3887033

>  <Assay Description>  (12) 
Enzyme Assay: Isolated TRK Enzyme assays use the HTRF KinEASE-TK kit (Cisbio Cat# 62TK0PEJ) with recombinant His-tagged cytoplasmic domains of each TRK receptor sourced from Invitrogen (see table below). This activity-assay measures the phosphorylation of tyrosine residues within a substrate from the HTRF kit which has been validated by Cisbio for a variety of tyrosine kinases including the TRK receptors. Assay details: Target:TRKA; Invitrogen Cat# PV3144; Amino acids:aa 441-796; FAC enzyme:4nM; FAC ATP:40uM; Assay Reaction Time:35min.

>  <BAO Format ID>  (12) 
BAO_0000357

>  <BAO Label>  (12) 
single protein format

>  <Assay Organism>  (12) 
None

>  <Target ChEMBL ID>  (12) 
CHEMBL2815

>  <Target Name>  (12) 
Nerve growth factor receptor Trk-A

>  <Target Organism>  (12) 
Homo sapiens

>  <Target Type>  (12) 
SINGLE PROTEIN

>  <Document ChEMBL ID>  (12) 
CHEMBL3639348

>  <Source Description>  (12) 
BindingDB Database

>  <Document Journal>  (12) 
nan

>  <Document Year>  (12) 
2014.0

>  <Active>  (12) 
1.0

>  <bits>  (12) 
<rdkit.DataStructs.cDataStructs.ExplicitBitVect object at 0x00000159F5492810>

>  <Group>  (12) 
G2

$$$$

     RDKit          2D

 41 46  0  0  0  0  0  0  0  0999 V2000
    5.7997    1.0344    0.0000 C   0  0  0  0  0  0  0  0  0  0  0  0
    4.7960    2.1491    0.0000 C   0  0  0  0  0  0  0  0  0  0  0  0
    5.2595    3.5757    0.0000 C   0  0  0  0  0  0  0  0  0  0  0  0
    6.7267    3.8876    0.0000 C   0  0  0  0  0  0  0  0  0  0  0  0
    7.7304    2.7729    0.0000 C   0  0  0  0  0  0  0  0  0  0  0  0
    7.2669    1.3463    0.0000 F   0  0  0  0  0  0  0  0  0  0  0  0
    9.1976    3.0847    0.0000 C   0  0  0  0  0  0  0  0  0  0  0  0
   10.2013    1.9700    0.0000 F   0  0  0  0  0  0  0  0  0  0  0  0
    9.6612    4.5113    0.0000 C   0  0  0  0  0  0  0  0  0  0  0  0
    8.6575    5.6260    0.0000 C   0  0  0  0  0  0  0  0  0  0  0  0
    9.1210    7.0526    0.0000 F   0  0  0  0  0  0  0  0  0  0  0  0
    7.1902    5.3142    0.0000 C   0  0  0  0  0  0  0  0  0  0  0  0
    6.1865    6.4289    0.0000 F   0  0  0  0  0  0  0  0  0  0  0  0
    3.3287    1.8373    0.0000 N   0  0  0  0  0  0  0  0  0  0  0  0
    2.3250    2.9520    0.0000 C   0  0  0  0  0  0  0  0  0  0  0  0
    2.7886    4.3786    0.0000 C   0  0  0  0  0  0  0  0  0  0  0  0
    1.7849    5.4933    0.0000 C   0  0  0  0  0  0  0  0  0  0  0  0
    0.3177    5.1814    0.0000 N   0  0  0  0  0  0  0  0  0  0  0  0
   -0.1459    3.7548    0.0000 C   0  0  0  0  0  0  0  0  0  0  0  0
   -1.6131    3.4430    0.0000 O   0  0  0  0  0  0  0  0  0  0  0  0
    0.8578    2.6401    0.0000 C   0  0  0  0  0  0  0  0  0  0  0  0
    0.3943    1.2135    0.0000 C   0  0  0  0  0  0  0  0  0  0  0  0
    1.2760    0.0000    0.0000 N   0  0  0  0  0  0  0  0  0  0  0  0
    0.3943   -1.2135    0.0000 C   0  0  0  0  0  0  0  0  0  0  0  0
    0.7062   -2.6807    0.0000 C   0  0  0  0  0  0  0  0  0  0  0  0
   -0.4086   -3.6844    0.0000 C   0  0  0  0  0  0  0  0  0  0  0  0
   -1.8351   -3.2209    0.0000 C   0  0  0  0  0  0  0  0  0  0  0  0
   -2.1470   -1.7537    0.0000 C   0  0  0  0  0  0  0  0  0  0  0  0
   -1.0323   -0.7500    0.0000 C   0  0  0  0  0  0  0  0  0  0  0  0
   -1.0323    0.7500    0.0000 N   0  0  0  0  0  0  0  0  0  0  0  0
   -2.7168   -4.4344    0.0000 C   0  0  0  0  0  0  0  0  0  0  0  0
   -1.8351   -5.6480    0.0000 N   0  0  0  0  0  0  0  0  0  0  0  0
   -2.2987   -7.0746    0.0000 C   0  0  0  0  0  0  0  0  0  0  0  0
   -3.7659   -7.3864    0.0000 C   0  0  0  0  0  0  0  0  0  0  0  0
   -4.2294   -8.8130    0.0000 C   0  0  0  0  0  0  0  0  0  0  0  0
   -3.2257   -9.9277    0.0000 N   0  0  0  0  0  0  0  0  0  0  0  0
   -3.6892  -11.3543    0.0000 C   0  0  0  0  0  0  0  0  0  0  0  0
   -1.7585   -9.6159    0.0000 C   0  0  0  0  0  0  0  0  0  0  0  0
   -1.2950   -8.1893    0.0000 C   0  0  0  0  0  0  0  0  0  0  0  0
   -0.4086   -5.1844    0.0000 C   0  0  0  0  0  0  0  0  0  0  0  0
    0.8050   -6.0661    0.0000 O   0  0  0  0  0  0  0  0  0  0  0  0
  2  1  1  6
  2  3  1  0
  3  4  1  0
  4  5  2  0
  5  6  1  0
  5  7  1  0
  7  8  1  0
  7  9  2  0
  9 10  1  0
 10 11  1  0
 10 12  2  0
 12 13  1  0
  2 14  1  0
 14 15  1  0
 15 16  1  0
 16 17  2  0
 17 18  1  0
 18 19  1  0
 19 20  2  0
 19 21  1  0
 21 22  1  0
 22 23  2  0
 23 24  1  0
 24 25  2  0
 25 26  1  0
 26 27  2  0
 27 28  1  0
 28 29  2  0
 29 30  1  0
 27 31  1  0
 31 32  1  0
 32 33  1  0
 33 34  1  0
 34 35  1  0
 35 36  1  0
 36 37  1  0
 36 38  1  0
 38 39  1  0
 32 40  1  0
 40 41  2  0
 12  4  1  0
 21 15  2  0
 30 22  1  0
 39 33  1  0
 29 24  1  0
 40 26  1  0
M  END
>  <Compound_ID>  (13) 
CHEMBL3671309

>  <Molecule Name>  (13) 
nan

>  <Molecular Weight>  (13) 
568.58

>  <AlogP>  (13) 
4.57

>  <Smiles>  (13) 
C[C@@H](Cc1c(F)c(F)cc(F)c1F)Nc1cc[nH]c(=O)c1-c1nc2cc3c(cc2[nH]1)CN(C1CCN(C)CC1)C3=O

>  <Standard Type>  (13) 
IC50

>  <Standard Relation>  (13) 
'='

>  <Standard Units>  (13) 
nM

>  <Standard Value>  (13) 
5.001

>  <Assay ChEMBL ID>  (13) 
CHEMBL3887072

>  <Assay Description>  (13) 
In Vitro Kinase Activity Assay: Compounds to be tested were dissolved in 100% DMSO in a range of concentrations from 10-8 to 10-3 M including negative control (DMSO), then diluted with Kinase Buffer (50 mM HEPES, pH 7.5, 1 mM EGTA, 10 mM MgCl2, 0.01% Tween-20, and 2 mM DTT, added fresh) to 4x the final concentration. The final curve included 11 concentrations (10-11 to 10-5 M) plus negative control DMSO tested in triplicate.Kinase and ATP concentrations necessary for optimal activity were determined in separate experiments. (Table 2). Briefly, increasing concentrations of kinase were incubated in a fixed concentration of ATP (200 uM) in Kinase Buffer to determine maximal activity at various time points (30-120 min). The concentration of kinase that resulted in maximal activity with the shortest incubation time was then incubated in Kinase Buffer with increasing concentrations of ATP.

>  <BAO Format ID>  (13) 
BAO_0000357

>  <BAO Label>  (13) 
single protein format

>  <Assay Organism>  (13) 
None

>  <Target ChEMBL ID>  (13) 
CHEMBL2815

>  <Target Name>  (13) 
Nerve growth factor receptor Trk-A

>  <Target Organism>  (13) 
Homo sapiens

>  <Target Type>  (13) 
SINGLE PROTEIN

>  <Document ChEMBL ID>  (13) 
CHEMBL3639188

>  <Source Description>  (13) 
BindingDB Database

>  <Document Journal>  (13) 
nan

>  <Document Year>  (13) 
2014.0

>  <Active>  (13) 
1.0

>  <bits>  (13) 
<rdkit.DataStructs.cDataStructs.ExplicitBitVect object at 0x00000159F54926C0>

>  <Group>  (13) 
G2

$$$$

     RDKit          2D

 31 35  0  0  0  0  0  0  0  0999 V2000
   -1.8373   -5.6601    0.0000 O   0  0  0  0  0  0  0  0  0  0  0  0
   -2.9520   -4.6564    0.0000 C   0  0  0  0  0  0  0  0  0  0  0  0
   -2.6401   -3.1891    0.0000 N   0  0  0  0  0  0  0  0  0  0  0  0
   -1.2135   -2.7256    0.0000 C   0  0  0  0  0  0  0  0  0  0  0  0
   -0.0000   -3.6073    0.0000 C   0  0  0  0  0  0  0  0  0  0  0  0
    1.2135   -2.7256    0.0000 N   0  0  0  0  0  0  0  0  0  0  0  0
    0.7500   -1.2990    0.0000 N   0  0  0  0  0  0  0  0  0  0  0  0
    1.5000    0.0000    0.0000 C   0  0  0  0  0  0  0  0  0  0  0  0
    0.7500    1.2990    0.0000 C   0  0  0  0  0  0  0  0  0  0  0  0
   -0.7500    1.2990    0.0000 C   0  0  0  0  0  0  0  0  0  0  0  0
   -1.5000    2.5981    0.0000 N   0  0  0  0  0  0  0  0  0  0  0  0
   -2.9918    2.7549    0.0000 C   0  0  0  0  0  0  0  0  0  0  0  0
   -3.3037    4.2221    0.0000 C   0  0  0  0  0  0  0  0  0  0  0  0
   -2.0046    4.9721    0.0000 C   0  0  0  0  0  0  0  0  0  0  0  0
   -0.8899    3.9684    0.0000 C   0  0  0  0  0  0  0  0  0  0  0  0
    0.5773    4.2803    0.0000 C   0  0  0  0  0  0  0  0  0  0  0  0
    1.5810    3.1655    0.0000 C   0  0  0  0  0  0  0  0  0  0  0  0
    3.0482    3.4774    0.0000 C   0  0  0  0  0  0  0  0  0  0  0  0
    4.0519    2.3627    0.0000 F   0  0  0  0  0  0  0  0  0  0  0  0
    3.5118    4.9040    0.0000 C   0  0  0  0  0  0  0  0  0  0  0  0
    2.5081    6.0187    0.0000 C   0  0  0  0  0  0  0  0  0  0  0  0
    1.0409    5.7068    0.0000 C   0  0  0  0  0  0  0  0  0  0  0  0
    0.0372    6.8216    0.0000 F   0  0  0  0  0  0  0  0  0  0  0  0
   -1.5000    0.0000    0.0000 N   0  0  0  0  0  0  0  0  0  0  0  0
   -0.7500   -1.2990    0.0000 C   0  0  0  0  0  0  0  0  0  0  0  0
   -4.3786   -5.1199    0.0000 N   0  0  0  0  0  0  0  0  0  0  0  0
   -4.8421   -6.5465    0.0000 C   0  0  0  0  0  0  0  0  0  0  0  0
   -6.3421   -6.5465    0.0000 C   0  0  0  0  0  0  0  0  0  0  0  0
   -6.8056   -5.1199    0.0000 C   0  0  0  0  0  0  0  0  0  0  0  0
   -8.2322   -4.6564    0.0000 O   0  0  0  0  0  0  0  0  0  0  0  0
   -5.5921   -4.2382    0.0000 C   0  0  0  0  0  0  0  0  0  0  0  0
  1  2  2  0
  2  3  1  0
  3  4  1  0
  4  5  1  0
  5  6  2  0
  6  7  1  0
  7  8  1  0
  8  9  2  0
  9 10  1  0
 10 11  1  0
 11 12  1  0
 12 13  1  0
 13 14  1  0
 14 15  1  0
 15 16  1  6
 16 17  2  0
 17 18  1  0
 18 19  1  0
 18 20  2  0
 20 21  1  0
 21 22  2  0
 22 23  1  0
 10 24  2  0
 24 25  1  0
  2 26  1  0
 26 27  1  0
 27 28  1  0
 28 29  1  0
 29 30  1  6
 29 31  1  0
 25  4  2  0
 31 26  1  0
 25  7  1  0
 15 11  1  0
 22 16  1  0
M  END
>  <Compound_ID>  (14) 
CHEMBL3889654

>  <Molecule Name>  (14) 
LAROTRECTINIB

>  <Molecular Weight>  (14) 
428.44

>  <AlogP>  (14) 
2.95

>  <Smiles>  (14) 
O=C(Nc1cnn2ccc(N3CCC[C@@H]3c3cc(F)ccc3F)nc12)N1CC[C@H](O)C1

>  <Standard Type>  (14) 
IC50

>  <Standard Relation>  (14) 
'='

>  <Standard Units>  (14) 
nM

>  <Standard Value>  (14) 
9.7

>  <Assay ChEMBL ID>  (14) 
CHEMBL3887076

>  <Assay Description>  (14) 
ELISA Assay: An enzyme-linked immunosorbant assay (ELISA) was used to assess TrkA kinase activity in the presence of inhibitors. Immulon 4HBX 384-well microtiter plates (Thermo part #8755) were coated with a 0.025 mg/mL solution of poly (Glu, Ala, Tyr; 6:3:1; Sigma P3899). Various concentrations of test compound, 2.5 nM TrkA (Invitrogen Corp., histidine-tagged recombinant human TrkA, cytoplasmic domain), and 500 uM ATP were incubated for 25 minutes at ambient temperature in the coated plates while shaking. The assay buffer consisted of 25 mM MOPS pH 7.5, 0.005% (v/v) Triton X-100 and 5 mM MgCl2. The reaction mixture was removed from the plate by washing with PBS containing 0.1% (v/v) Tween 20. The phosphorylated reaction product was detected using 0.2 ug/mL of a phosphotyrosine specific monoclonal antibody (clone PY20) conjugated to horseradish peroxidase in conjunction with the TMB Peroxidase Substrate System (KPL).

>  <BAO Format ID>  (14) 
BAO_0000357

>  <BAO Label>  (14) 
single protein format

>  <Assay Organism>  (14) 
None

>  <Target ChEMBL ID>  (14) 
CHEMBL2815

>  <Target Name>  (14) 
Nerve growth factor receptor Trk-A

>  <Target Organism>  (14) 
Homo sapiens

>  <Target Type>  (14) 
SINGLE PROTEIN

>  <Document ChEMBL ID>  (14) 
CHEMBL3886151

>  <Source Description>  (14) 
BindingDB Database

>  <Document Journal>  (14) 
nan

>  <Document Year>  (14) 
2014.0

>  <Active>  (14) 
1.0

>  <bits>  (14) 
<rdkit.DataStructs.cDataStructs.ExplicitBitVect object at 0x00000159F5493A70>

>  <Group>  (14) 
G2

$$$$

     RDKit          2D

 32 36  0  0  0  0  0  0  0  0999 V2000
   -3.7548   -2.1855    0.0000 O   0  0  0  0  0  0  0  0  0  0  0  0
   -2.6401   -3.1891    0.0000 C   0  0  0  0  0  0  0  0  0  0  0  0
   -2.9520   -4.6564    0.0000 N   0  0  0  0  0  0  0  0  0  0  0  0
   -4.3786   -5.1199    0.0000 C   0  0  0  0  0  0  0  0  0  0  0  0
   -4.6904   -6.5871    0.0000 C   0  0  0  0  0  0  0  0  0  0  0  0
   -6.1170   -7.0506    0.0000 C   0  0  0  0  0  0  0  0  0  0  0  0
   -6.5805   -8.4772    0.0000 C   0  0  0  0  0  0  0  0  0  0  0  0
   -8.0805   -8.4772    0.0000 N   0  0  0  0  0  0  0  0  0  0  0  0
   -8.5441   -7.0506    0.0000 C   0  0  0  0  0  0  0  0  0  0  0  0
   -7.3305   -6.1690    0.0000 N   0  0  0  0  0  0  0  0  0  0  0  0
   -1.2135   -2.7256    0.0000 C   0  0  0  0  0  0  0  0  0  0  0  0
   -0.0000   -3.6073    0.0000 C   0  0  0  0  0  0  0  0  0  0  0  0
    1.2135   -2.7256    0.0000 N   0  0  0  0  0  0  0  0  0  0  0  0
    0.7500   -1.2990    0.0000 N   0  0  0  0  0  0  0  0  0  0  0  0
    1.5000    0.0000    0.0000 C   0  0  0  0  0  0  0  0  0  0  0  0
    0.7500    1.2990    0.0000 C   0  0  0  0  0  0  0  0  0  0  0  0
   -0.7500    1.2990    0.0000 C   0  0  0  0  0  0  0  0  0  0  0  0
   -1.5000    2.5981    0.0000 N   0  0  0  0  0  0  0  0  0  0  0  0
   -2.9918    2.7549    0.0000 C   0  0  0  0  0  0  0  0  0  0  0  0
   -3.3037    4.2221    0.0000 C   0  0  0  0  0  0  0  0  0  0  0  0
   -2.0046    4.9721    0.0000 C   0  0  0  0  0  0  0  0  0  0  0  0
   -0.8899    3.9684    0.0000 C   0  0  0  0  0  0  0  0  0  0  0  0
    0.5773    4.2803    0.0000 C   0  0  0  0  0  0  0  0  0  0  0  0
    1.5810    3.1655    0.0000 C   0  0  0  0  0  0  0  0  0  0  0  0
    3.0482    3.4774    0.0000 C   0  0  0  0  0  0  0  0  0  0  0  0
    4.0519    2.3627    0.0000 F   0  0  0  0  0  0  0  0  0  0  0  0
    3.5118    4.9040    0.0000 C   0  0  0  0  0  0  0  0  0  0  0  0
    2.5081    6.0187    0.0000 C   0  0  0  0  0  0  0  0  0  0  0  0
    1.0409    5.7068    0.0000 C   0  0  0  0  0  0  0  0  0  0  0  0
    0.0372    6.8216    0.0000 F   0  0  0  0  0  0  0  0  0  0  0  0
   -1.5000    0.0000    0.0000 N   0  0  0  0  0  0  0  0  0  0  0  0
   -0.7500   -1.2990    0.0000 C   0  0  0  0  0  0  0  0  0  0  0  0
  1  2  2  0
  2  3  1  0
  3  4  1  0
  4  5  1  0
  5  6  1  0
  6  7  2  0
  7  8  1  0
  8  9  2  0
  9 10  1  0
  2 11  1  0
 11 12  1  0
 12 13  2  0
 13 14  1  0
 14 15  1  0
 15 16  2  0
 16 17  1  0
 17 18  1  0
 18 19  1  0
 19 20  1  0
 20 21  1  0
 21 22  1  0
 22 23  1  6
 23 24  2  0
 24 25  1  0
 25 26  1  0
 25 27  2  0
 27 28  1  0
 28 29  2  0
 29 30  1  0
 17 31  2  0
 31 32  1  0
 10  6  1  0
 32 11  2  0
 32 14  1  0
 22 18  1  0
 29 23  1  0
M  END
>  <Compound_ID>  (15) 
CHEMBL3671153

>  <Molecule Name>  (15) 
nan

>  <Molecular Weight>  (15) 
437.45

>  <AlogP>  (15) 
3.04

>  <Smiles>  (15) 
O=C(NCCc1cnc[nH]1)c1cnn2ccc(N3CCC[C@@H]3c3cc(F)ccc3F)nc12

>  <Standard Type>  (15) 
IC50

>  <Standard Relation>  (15) 
'='

>  <Standard Units>  (15) 
nM

>  <Standard Value>  (15) 
0.4

>  <Assay ChEMBL ID>  (15) 
CHEMBL3887070

>  <Assay Description>  (15) 
ELISA Assay: An enzyme-linked immunosorbant assay (ELISA) was used to assess TrkA kinase activity in the presence of inhibitors. Immulon 4HBX 384-well microtiter plates (Thermo part #8755) were coated with a 0.025 mg/mL solution of poly (Glu, Ala, Tyr; 6:3:1; Sigma P3899). Various concentrations of test compound, 2.5 nM TrkA (Invitrogen Corp., histidine-tagged recombinant human TrkA, cytoplasmic domain), and 500 uM ATP were incubated for 25 minutes at ambient temperature in the coated plates while shaking The assay buffer consisted of 25 mM MOPS pH 7.5, 0.005% (v/v) Triton X-100 and 5 mM MgCl2. The reaction mixture was removed from the plate by washing with PBS containing 0.1% (v/v) Tween 20. The phosphorylated reaction product was detected using 0.2 ug/mL of a phosphotyrosine specific monoclonal antibody (clone PY20) conjugated to horseradish peroxidase in conjunction with the TMB Peroxidase Substrate System (KPL).

>  <BAO Format ID>  (15) 
BAO_0000357

>  <BAO Label>  (15) 
single protein format

>  <Assay Organism>  (15) 
None

>  <Target ChEMBL ID>  (15) 
CHEMBL2815

>  <Target Name>  (15) 
Nerve growth factor receptor Trk-A

>  <Target Organism>  (15) 
Homo sapiens

>  <Target Type>  (15) 
SINGLE PROTEIN

>  <Document ChEMBL ID>  (15) 
CHEMBL3638907

>  <Source Description>  (15) 
BindingDB Database

>  <Document Journal>  (15) 
nan

>  <Document Year>  (15) 
2014.0

>  <Active>  (15) 
1.0

>  <bits>  (15) 
<rdkit.DataStructs.cDataStructs.ExplicitBitVect object at 0x00000159F5491FC0>

>  <Group>  (15) 
G2

$$$$

     RDKit          2D

 31 34  0  0  0  0  0  0  0  0999 V2000
    0.3204  -15.8532    0.0000 C   0  0  0  0  0  0  0  0  0  0  0  0
   -0.2897  -14.4829    0.0000 C   0  0  0  0  0  0  0  0  0  0  0  0
    0.4603  -13.1838    0.0000 N   0  0  0  0  0  0  0  0  0  0  0  0
   -0.5434  -12.0691    0.0000 C   0  0  0  0  0  0  0  0  0  0  0  0
   -0.2316  -10.6019    0.0000 C   0  0  0  0  0  0  0  0  0  0  0  0
   -1.3463   -9.5982    0.0000 C   0  0  0  0  0  0  0  0  0  0  0  0
   -2.7729  -10.0617    0.0000 O   0  0  0  0  0  0  0  0  0  0  0  0
   -1.0344   -8.1310    0.0000 N   0  0  0  0  0  0  0  0  0  0  0  0
   -2.1491   -7.1273    0.0000 C   0  0  0  0  0  0  0  0  0  0  0  0
   -1.8373   -5.6601    0.0000 C   0  0  0  0  0  0  0  0  0  0  0  0
   -2.9520   -4.6564    0.0000 C   0  0  0  0  0  0  0  0  0  0  0  0
   -2.6401   -3.1891    0.0000 C   0  0  0  0  0  0  0  0  0  0  0  0
   -3.7548   -2.1855    0.0000 O   0  0  0  0  0  0  0  0  0  0  0  0
   -1.2135   -2.7256    0.0000 C   0  0  0  0  0  0  0  0  0  0  0  0
   -0.0000   -3.6073    0.0000 C   0  0  0  0  0  0  0  0  0  0  0  0
    1.2135   -2.7256    0.0000 N   0  0  0  0  0  0  0  0  0  0  0  0
    2.6401   -3.1891    0.0000 C   0  0  0  0  0  0  0  0  0  0  0  0
    2.9520   -4.6564    0.0000 C   0  0  0  0  0  0  0  0  0  0  0  0
    3.7548   -2.1855    0.0000 C   0  0  0  0  0  0  0  0  0  0  0  0
    0.7500   -1.2990    0.0000 C   0  0  0  0  0  0  0  0  0  0  0  0
    1.5000    0.0000    0.0000 C   0  0  0  0  0  0  0  0  0  0  0  0
    0.7500    1.2990    0.0000 C   0  0  0  0  0  0  0  0  0  0  0  0
   -0.7500    1.2990    0.0000 N   0  0  0  0  0  0  0  0  0  0  0  0
   -1.5000    0.0000    0.0000 C   0  0  0  0  0  0  0  0  0  0  0  0
   -0.7500   -1.2990    0.0000 C   0  0  0  0  0  0  0  0  0  0  0  0
   -4.3786   -5.1199    0.0000 C   0  0  0  0  0  0  0  0  0  0  0  0
   -4.6904   -6.5871    0.0000 C   0  0  0  0  0  0  0  0  0  0  0  0
   -3.5757   -7.5908    0.0000 N   0  0  0  0  0  0  0  0  0  0  0  0
   -1.9137  -12.6792    0.0000 C   0  0  0  0  0  0  0  0  0  0  0  0
   -3.2128  -11.9292    0.0000 C   0  0  0  0  0  0  0  0  0  0  0  0
   -1.7570  -14.1710    0.0000 S   0  0  0  0  0  0  0  0  0  0  0  0
  1  2  1  0
  2  3  2  0
  3  4  1  0
  4  5  1  0
  5  6  1  0
  6  7  2  0
  6  8  1  0
  8  9  1  0
  9 10  2  0
 10 11  1  0
 11 12  1  0
 12 13  2  0
 12 14  1  0
 14 15  2  0
 15 16  1  0
 16 17  1  0
 17 18  1  0
 17 19  1  0
 16 20  1  0
 20 21  2  0
 21 22  1  0
 22 23  2  0
 23 24  1  0
 24 25  2  0
 11 26  2  0
 26 27  1  0
 27 28  2  0
  4 29  2  0
 29 30  1  0
 29 31  1  0
 31  2  1  0
 28  9  1  0
 25 14  1  0
 25 20  1  0
M  END
>  <Compound_ID>  (16) 
CHEMBL3905235

>  <Molecule Name>  (16) 
nan

>  <Molecular Weight>  (16) 
433.54

>  <AlogP>  (16) 
4.5

>  <Smiles>  (16) 
Cc1nc(CC(=O)Nc2cc(C(=O)c3cn(C(C)C)c4ccncc34)ccn2)c(C)s1

>  <Standard Type>  (16) 
IC50

>  <Standard Relation>  (16) 
'='

>  <Standard Units>  (16) 
nM

>  <Standard Value>  (16) 
56.0

>  <Assay ChEMBL ID>  (16) 
CHEMBL3887111

>  <Assay Description>  (16) 
HTRF Assay: Isolated TRK Enzyme assays use the HTRF KinEASE-TK kit (Cisbio Cat#62TK0PEJ) with recombinant His-tagged cytoplasmic domains of each TRK receptor sourced from Invitrogen (see table below). This activity-assay measures the phosphorylation of tyrosine residues within a substrate from the HTRF kit which has been validated by Cisbio for a variety of tyrosine kinases including the TRK receptors.Assay Details: Invitrogen Amino FAC FAC Assay ReactionTarget Cat# acids enzyme ATP TimeTRKA PV3144 aa 441-4 nM 40 uM 35 min (NTRK1) 796 TRKB PV3616 aa 526-1 nM 1.4 uM 40 min (NTRK2) 838 TRKC PV3617 aa 510- 10 nM 15 uM 30 min (NTRK3) 8250.5 mM stock solutions of test compounds are prepared and serially diluted in 100% DMSO. A standard curve using the compound of Example 135 disclosed in WO2005/116035 of 150 uM is also prepared on each test plate. High percentage effect (HPE) is defined by 150 uM.

>  <BAO Format ID>  (16) 
BAO_0000357

>  <BAO Label>  (16) 
single protein format

>  <Assay Organism>  (16) 
None

>  <Target ChEMBL ID>  (16) 
CHEMBL2815

>  <Target Name>  (16) 
Nerve growth factor receptor Trk-A

>  <Target Organism>  (16) 
Homo sapiens

>  <Target Type>  (16) 
SINGLE PROTEIN

>  <Document ChEMBL ID>  (16) 
CHEMBL3886170

>  <Source Description>  (16) 
BindingDB Database

>  <Document Journal>  (16) 
nan

>  <Document Year>  (16) 
2015.0

>  <Active>  (16) 
1.0

>  <bits>  (16) 
<rdkit.DataStructs.cDataStructs.ExplicitBitVect object at 0x00000159F5491A80>

>  <Group>  (16) 
G2

$$$$

     RDKit          2D

 32 36  0  0  0  0  0  0  0  0999 V2000
   -1.8373   -5.6601    0.0000 O   0  0  0  0  0  0  0  0  0  0  0  0
   -2.9520   -4.6564    0.0000 C   0  0  0  0  0  0  0  0  0  0  0  0
   -2.6401   -3.1891    0.0000 N   0  0  0  0  0  0  0  0  0  0  0  0
   -1.2135   -2.7256    0.0000 C   0  0  0  0  0  0  0  0  0  0  0  0
   -0.0000   -3.6073    0.0000 C   0  0  0  0  0  0  0  0  0  0  0  0
    1.2135   -2.7256    0.0000 N   0  0  0  0  0  0  0  0  0  0  0  0
    0.7500   -1.2990    0.0000 N   0  0  0  0  0  0  0  0  0  0  0  0
    1.5000    0.0000    0.0000 C   0  0  0  0  0  0  0  0  0  0  0  0
    0.7500    1.2990    0.0000 C   0  0  0  0  0  0  0  0  0  0  0  0
   -0.7500    1.2990    0.0000 C   0  0  0  0  0  0  0  0  0  0  0  0
   -1.5000    2.5981    0.0000 N   0  0  0  0  0  0  0  0  0  0  0  0
   -2.9918    2.7549    0.0000 C   0  0  0  0  0  0  0  0  0  0  0  0
   -3.3037    4.2221    0.0000 C   0  0  0  0  0  0  0  0  0  0  0  0
   -2.0046    4.9721    0.0000 C   0  0  0  0  0  0  0  0  0  0  0  0
   -0.8899    3.9684    0.0000 C   0  0  0  0  0  0  0  0  0  0  0  0
    0.5773    4.2803    0.0000 C   0  0  0  0  0  0  0  0  0  0  0  0
    1.5810    3.1655    0.0000 C   0  0  0  0  0  0  0  0  0  0  0  0
    3.0482    3.4774    0.0000 C   0  0  0  0  0  0  0  0  0  0  0  0
    4.0519    2.3627    0.0000 F   0  0  0  0  0  0  0  0  0  0  0  0
    3.5118    4.9040    0.0000 C   0  0  0  0  0  0  0  0  0  0  0  0
    2.5081    6.0187    0.0000 C   0  0  0  0  0  0  0  0  0  0  0  0
    1.0409    5.7068    0.0000 C   0  0  0  0  0  0  0  0  0  0  0  0
    0.0372    6.8216    0.0000 F   0  0  0  0  0  0  0  0  0  0  0  0
   -1.5000    0.0000    0.0000 N   0  0  0  0  0  0  0  0  0  0  0  0
   -0.7500   -1.2990    0.0000 C   0  0  0  0  0  0  0  0  0  0  0  0
   -4.3786   -5.1199    0.0000 C   0  0  0  0  0  0  0  0  0  0  0  0
   -5.4933   -4.1162    0.0000 C   0  0  0  0  0  0  0  0  0  0  0  0
   -6.9199   -4.5797    0.0000 C   0  0  0  0  0  0  0  0  0  0  0  0
   -8.0346   -3.5760    0.0000 Cl  0  0  0  0  0  0  0  0  0  0  0  0
   -7.2317   -6.0469    0.0000 C   0  0  0  0  0  0  0  0  0  0  0  0
   -6.1170   -7.0506    0.0000 C   0  0  0  0  0  0  0  0  0  0  0  0
   -4.6904   -6.5871    0.0000 N   0  0  0  0  0  0  0  0  0  0  0  0
  1  2  2  0
  2  3  1  0
  3  4  1  0
  4  5  1  0
  5  6  2  0
  6  7  1  0
  7  8  1  0
  8  9  2  0
  9 10  1  0
 10 11  1  0
 11 12  1  0
 12 13  1  0
 13 14  1  0
 14 15  1  0
 15 16  1  6
 16 17  2  0
 17 18  1  0
 18 19  1  0
 18 20  2  0
 20 21  1  0
 21 22  2  0
 22 23  1  0
 10 24  2  0
 24 25  1  0
  2 26  1  0
 26 27  2  0
 27 28  1  0
 28 29  1  0
 28 30  2  0
 30 31  1  0
 31 32  2  0
 25  4  2  0
 32 26  1  0
 25  7  1  0
 15 11  1  0
 22 16  1  0
M  END
>  <Compound_ID>  (17) 
CHEMBL4111039

>  <Molecule Name>  (17) 
nan

>  <Molecular Weight>  (17) 
454.87

>  <AlogP>  (17) 
4.65

>  <Smiles>  (17) 
O=C(Nc1cnn2ccc(N3CCC[C@@H]3c3cc(F)ccc3F)nc12)c1cc(Cl)ccn1

>  <Standard Type>  (17) 
IC50

>  <Standard Relation>  (17) 
'='

>  <Standard Units>  (17) 
nM

>  <Standard Value>  (17) 
4.0

>  <Assay ChEMBL ID>  (17) 
CHEMBL3887076

>  <Assay Description>  (17) 
ELISA Assay: An enzyme-linked immunosorbant assay (ELISA) was used to assess TrkA kinase activity in the presence of inhibitors. Immulon 4HBX 384-well microtiter plates (Thermo part #8755) were coated with a 0.025 mg/mL solution of poly (Glu, Ala, Tyr; 6:3:1; Sigma P3899). Various concentrations of test compound, 2.5 nM TrkA (Invitrogen Corp., histidine-tagged recombinant human TrkA, cytoplasmic domain), and 500 uM ATP were incubated for 25 minutes at ambient temperature in the coated plates while shaking. The assay buffer consisted of 25 mM MOPS pH 7.5, 0.005% (v/v) Triton X-100 and 5 mM MgCl2. The reaction mixture was removed from the plate by washing with PBS containing 0.1% (v/v) Tween 20. The phosphorylated reaction product was detected using 0.2 ug/mL of a phosphotyrosine specific monoclonal antibody (clone PY20) conjugated to horseradish peroxidase in conjunction with the TMB Peroxidase Substrate System (KPL).

>  <BAO Format ID>  (17) 
BAO_0000357

>  <BAO Label>  (17) 
single protein format

>  <Assay Organism>  (17) 
None

>  <Target ChEMBL ID>  (17) 
CHEMBL2815

>  <Target Name>  (17) 
Nerve growth factor receptor Trk-A

>  <Target Organism>  (17) 
Homo sapiens

>  <Target Type>  (17) 
SINGLE PROTEIN

>  <Document ChEMBL ID>  (17) 
CHEMBL3886151

>  <Source Description>  (17) 
BindingDB Database

>  <Document Journal>  (17) 
nan

>  <Document Year>  (17) 
2014.0

>  <Active>  (17) 
1.0

>  <bits>  (17) 
<rdkit.DataStructs.cDataStructs.ExplicitBitVect object at 0x00000159F5491770>

>  <Group>  (17) 
G2

$$$$

     RDKit          2D

 30 33  0  0  0  0  0  0  0  0999 V2000
    3.0000    0.0000    0.0000 C   0  0  0  0  0  0  0  0  0  0  0  0
    1.5000    0.0000    0.0000 C   0  0  0  0  0  0  0  0  0  0  0  0
    0.7500   -1.2990    0.0000 C   0  0  0  0  0  0  0  0  0  0  0  0
   -0.7500   -1.2990    0.0000 C   0  0  0  0  0  0  0  0  0  0  0  0
   -1.5000    0.0000    0.0000 N   0  0  0  0  0  0  0  0  0  0  0  0
   -3.0000    0.0000    0.0000 C   0  0  0  0  0  0  0  0  0  0  0  0
   -3.7500    1.2990    0.0000 C   0  0  0  0  0  0  0  0  0  0  0  0
   -5.2500    1.2990    0.0000 C   0  0  0  0  0  0  0  0  0  0  0  0
   -6.0000    2.5981    0.0000 N   0  0  0  0  0  0  0  0  0  0  0  0
   -5.2500    3.8971    0.0000 C   0  0  0  0  0  0  0  0  0  0  0  0
   -6.0000    5.1962    0.0000 C   0  0  0  0  0  0  0  0  0  0  0  0
   -7.5000    5.1962    0.0000 N   0  0  0  0  0  0  0  0  0  0  0  0
   -8.2500    6.4952    0.0000 C   0  0  0  0  0  0  0  0  0  0  0  0
   -8.2500    3.8971    0.0000 C   0  0  0  0  0  0  0  0  0  0  0  0
   -7.5000    2.5981    0.0000 C   0  0  0  0  0  0  0  0  0  0  0  0
   -6.0000    0.0000    0.0000 C   0  0  0  0  0  0  0  0  0  0  0  0
   -5.2500   -1.2990    0.0000 C   0  0  0  0  0  0  0  0  0  0  0  0
   -3.7500   -1.2990    0.0000 C   0  0  0  0  0  0  0  0  0  0  0  0
   -3.0000   -2.5981    0.0000 N   0  0  0  0  0  0  0  0  0  0  0  0
   -3.7500   -3.8971    0.0000 C   0  0  0  0  0  0  0  0  0  0  0  0
   -5.2500   -3.8971    0.0000 O   0  0  0  0  0  0  0  0  0  0  0  0
   -3.0000   -5.1962    0.0000 C   0  0  0  0  0  0  0  0  0  0  0  0
   -1.5082   -5.3529    0.0000 C   0  0  0  0  0  0  0  0  0  0  0  0
   -1.1963   -6.8202    0.0000 C   0  0  0  0  0  0  0  0  0  0  0  0
    0.1740   -7.4303    0.0000 C   0  0  0  0  0  0  0  0  0  0  0  0
    1.5443   -8.0404    0.0000 N   0  0  0  0  0  0  0  0  0  0  0  0
   -2.4954   -7.5702    0.0000 C   0  0  0  0  0  0  0  0  0  0  0  0
   -3.6101   -6.5665    0.0000 N   0  0  0  0  0  0  0  0  0  0  0  0
   -0.7500    1.2990    0.0000 C   0  0  0  0  0  0  0  0  0  0  0  0
    0.7500    1.2990    0.0000 C   0  0  0  0  0  0  0  0  0  0  0  0
  1  2  1  0
  2  3  1  0
  3  4  1  0
  4  5  1  0
  5  6  1  0
  6  7  2  0
  7  8  1  0
  8  9  1  0
  9 10  1  0
 10 11  1  0
 11 12  1  0
 12 13  1  0
 12 14  1  0
 14 15  1  0
  8 16  2  0
 16 17  1  0
 17 18  2  0
 18 19  1  0
 19 20  1  0
 20 21  2  0
 20 22  1  0
 22 23  2  0
 23 24  1  0
 24 25  1  0
 25 26  3  0
 24 27  2  0
 27 28  1  0
  5 29  1  0
 29 30  1  0
 30  2  1  0
 18  6  1  0
 28 22  1  0
 15  9  1  0
M  END
>  <Compound_ID>  (18) 
CHEMBL254702

>  <Molecule Name>  (18) 
nan

>  <Molecular Weight>  (18) 
406.53

>  <AlogP>  (18) 
3.13

>  <Smiles>  (18) 
CC1CCN(c2cc(N3CCN(C)CC3)ccc2NC(=O)c2cc(C#N)c[nH]2)CC1

>  <Standard Type>  (18) 
IC50

>  <Standard Relation>  (18) 
'='

>  <Standard Units>  (18) 
nM

>  <Standard Value>  (18) 
11.0

>  <Assay ChEMBL ID>  (18) 
CHEMBL927243

>  <Assay Description>  (18) 
Inhibition of TrkA after 27 mins by fluorescence polarization

>  <BAO Format ID>  (18) 
BAO_0000357

>  <BAO Label>  (18) 
single protein format

>  <Assay Organism>  (18) 
None

>  <Target ChEMBL ID>  (18) 
CHEMBL2815

>  <Target Name>  (18) 
Nerve growth factor receptor Trk-A

>  <Target Organism>  (18) 
Homo sapiens

>  <Target Type>  (18) 
SINGLE PROTEIN

>  <Document ChEMBL ID>  (18) 
CHEMBL1141497

>  <Source Description>  (18) 
Scientific Literature

>  <Document Journal>  (18) 
Bioorg Med Chem Lett

>  <Document Year>  (18) 
2008.0

>  <Active>  (18) 
1.0

>  <bits>  (18) 
<rdkit.DataStructs.cDataStructs.ExplicitBitVect object at 0x00000159F5491690>

>  <Group>  (18) 
G2

$$$$

     RDKit          2D

 35 39  0  0  0  0  0  0  0  0999 V2000
  -11.4787   -4.6951    0.0000 C   0  0  0  0  0  0  0  0  0  0  0  0
  -10.3639   -5.6988    0.0000 C   0  0  0  0  0  0  0  0  0  0  0  0
  -10.6758   -7.1660    0.0000 C   0  0  0  0  0  0  0  0  0  0  0  0
   -8.9374   -5.2352    0.0000 C   0  0  0  0  0  0  0  0  0  0  0  0
   -8.6255   -3.7680    0.0000 O   0  0  0  0  0  0  0  0  0  0  0  0
   -7.8226   -6.2389    0.0000 O   0  0  0  0  0  0  0  0  0  0  0  0
   -6.3961   -5.7754    0.0000 C   0  0  0  0  0  0  0  0  0  0  0  0
   -5.7151   -4.4389    0.0000 C   0  0  0  0  0  0  0  0  0  0  0  0
   -4.3786   -5.1199    0.0000 N   0  0  0  0  0  0  0  0  0  0  0  0
   -2.9520   -4.6564    0.0000 C   0  0  0  0  0  0  0  0  0  0  0  0
   -1.8373   -5.6601    0.0000 O   0  0  0  0  0  0  0  0  0  0  0  0
   -2.6401   -3.1891    0.0000 N   0  0  0  0  0  0  0  0  0  0  0  0
   -1.2135   -2.7256    0.0000 C   0  0  0  0  0  0  0  0  0  0  0  0
   -0.0000   -3.6073    0.0000 C   0  0  0  0  0  0  0  0  0  0  0  0
    1.2135   -2.7256    0.0000 N   0  0  0  0  0  0  0  0  0  0  0  0
    0.7500   -1.2990    0.0000 C   0  0  0  0  0  0  0  0  0  0  0  0
    1.5000    0.0000    0.0000 C   0  0  0  0  0  0  0  0  0  0  0  0
    0.7500    1.2990    0.0000 C   0  0  0  0  0  0  0  0  0  0  0  0
   -0.7500    1.2990    0.0000 C   0  0  0  0  0  0  0  0  0  0  0  0
   -1.5000    2.5981    0.0000 N   0  0  0  0  0  0  0  0  0  0  0  0
   -2.9918    2.7549    0.0000 C   0  0  0  0  0  0  0  0  0  0  0  0
   -3.3037    4.2221    0.0000 C   0  0  0  0  0  0  0  0  0  0  0  0
   -2.0046    4.9721    0.0000 C   0  0  0  0  0  0  0  0  0  0  0  0
   -0.8899    3.9684    0.0000 C   0  0  0  0  0  0  0  0  0  0  0  0
    0.5773    4.2803    0.0000 C   0  0  0  0  0  0  0  0  0  0  0  0
    1.5810    3.1655    0.0000 C   0  0  0  0  0  0  0  0  0  0  0  0
    3.0482    3.4774    0.0000 C   0  0  0  0  0  0  0  0  0  0  0  0
    4.0519    2.3627    0.0000 F   0  0  0  0  0  0  0  0  0  0  0  0
    3.5118    4.9040    0.0000 C   0  0  0  0  0  0  0  0  0  0  0  0
    2.5081    6.0187    0.0000 C   0  0  0  0  0  0  0  0  0  0  0  0
    1.0409    5.7068    0.0000 C   0  0  0  0  0  0  0  0  0  0  0  0
    0.0372    6.8216    0.0000 F   0  0  0  0  0  0  0  0  0  0  0  0
   -1.5000    0.0000    0.0000 N   0  0  0  0  0  0  0  0  0  0  0  0
   -0.7500   -1.2990    0.0000 N   0  0  0  0  0  0  0  0  0  0  0  0
   -5.0595   -6.4564    0.0000 C   0  0  0  0  0  0  0  0  0  0  0  0
  1  2  1  0
  2  3  1  0
  2  4  1  0
  4  5  2  0
  4  6  1  0
  6  7  1  0
  7  8  1  0
  8  9  1  0
  9 10  1  0
 10 11  2  0
 10 12  1  0
 12 13  1  0
 13 14  2  0
 14 15  1  0
 15 16  2  0
 16 17  1  0
 17 18  2  0
 18 19  1  0
 19 20  1  0
 20 21  1  0
 21 22  1  0
 22 23  1  0
 23 24  1  0
 24 25  1  6
 25 26  2  0
 26 27  1  0
 27 28  1  0
 27 29  2  0
 29 30  1  0
 30 31  2  0
 31 32  1  0
 19 33  2  0
 33 34  1  0
  9 35  1  0
 35  7  1  0
 34 13  1  0
 34 16  1  0
 24 20  1  0
 31 25  1  0
M  END
>  <Compound_ID>  (19) 
CHEMBL4107390

>  <Molecule Name>  (19) 
nan

>  <Molecular Weight>  (19) 
484.51

>  <AlogP>  (19) 
3.76

>  <Smiles>  (19) 
CC(C)C(=O)OC1CN(C(=O)Nc2cnc3ccc(N4CCC[C@@H]4c4cc(F)ccc4F)nn23)C1

>  <Standard Type>  (19) 
IC50

>  <Standard Relation>  (19) 
'='

>  <Standard Units>  (19) 
nM

>  <Standard Value>  (19) 
19.4

>  <Assay ChEMBL ID>  (19) 
CHEMBL3887826

>  <Assay Description>  (19) 
ELISA Assay: An enzyme-linked immunosorbant assay (ELISA) was used to assess TrkA kinase activity in the presence of inhibitors. Immulon 4HBX 384-well microtiter plates (Thermo part #8755) were coated with a 0.025 mg/mL solution of poly (Glu, Ala, Tyr; 6:3:1; Sigma P3899). Various concentrations of test compound, 2.5 nM TrkA (Invitrogen Corp., histidine-tagged recombinant human TrkA, cytoplasmic domain), and 500 uM ATP were incubated for 25 minutes at ambient temperature in the coated plates while shaking. The assay buffer consisted of 25 mM MOPS pH 7.5, 0.005% (v/v) Triton X-100 and 5 mM MgCl2. The reaction mixture was removed from the plate by washing with PBS containing 0.1% (v/v) Tween 20. The phosphorylated reaction product was detected using 0.2 ug/mL of a phosphotyrosine specific monoclonal antibody (clone PY20) conjugated to horseradish peroxidase in conjunction with the TMB Peroxidase Substrate System (KPL).

>  <BAO Format ID>  (19) 
BAO_0000357

>  <BAO Label>  (19) 
single protein format

>  <Assay Organism>  (19) 
None

>  <Target ChEMBL ID>  (19) 
CHEMBL2815

>  <Target Name>  (19) 
Nerve growth factor receptor Trk-A

>  <Target Organism>  (19) 
Homo sapiens

>  <Target Type>  (19) 
SINGLE PROTEIN

>  <Document ChEMBL ID>  (19) 
CHEMBL3886465

>  <Source Description>  (19) 
BindingDB Database

>  <Document Journal>  (19) 
nan

>  <Document Year>  (19) 
2016.0

>  <Active>  (19) 
1.0

>  <bits>  (19) 
<rdkit.DataStructs.cDataStructs.ExplicitBitVect object at 0x00000159F5491380>

>  <Group>  (19) 
G2

$$$$

     RDKit          2D

 34 37  0  0  0  0  0  0  0  0999 V2000
   -2.1766   -4.6157    0.0000 C   0  0  0  0  0  0  0  0  0  0  0  0
   -2.6401   -3.1891    0.0000 C   0  0  0  0  0  0  0  0  0  0  0  0
   -3.1036   -1.7626    0.0000 C   0  0  0  0  0  0  0  0  0  0  0  0
   -4.0667   -3.6527    0.0000 C   0  0  0  0  0  0  0  0  0  0  0  0
   -1.2135   -2.7256    0.0000 N   0  0  0  0  0  0  0  0  0  0  0  0
   -0.0000   -3.6073    0.0000 C   0  0  0  0  0  0  0  0  0  0  0  0
    1.2135   -2.7256    0.0000 C   0  0  0  0  0  0  0  0  0  0  0  0
    2.6401   -3.1891    0.0000 C   0  0  0  0  0  0  0  0  0  0  0  0
    3.7548   -2.1855    0.0000 O   0  0  0  0  0  0  0  0  0  0  0  0
    2.9520   -4.6564    0.0000 C   0  0  0  0  0  0  0  0  0  0  0  0
    1.8373   -5.6601    0.0000 C   0  0  0  0  0  0  0  0  0  0  0  0
    2.1491   -7.1273    0.0000 N   0  0  0  0  0  0  0  0  0  0  0  0
    3.5757   -7.5908    0.0000 C   0  0  0  0  0  0  0  0  0  0  0  0
    4.6904   -6.5871    0.0000 C   0  0  0  0  0  0  0  0  0  0  0  0
    6.1170   -7.0506    0.0000 N   0  0  0  0  0  0  0  0  0  0  0  0
    6.4289   -8.5179    0.0000 C   0  0  0  0  0  0  0  0  0  0  0  0
    5.3142   -9.5216    0.0000 O   0  0  0  0  0  0  0  0  0  0  0  0
    7.8555   -8.9814    0.0000 C   0  0  0  0  0  0  0  0  0  0  0  0
    8.1673  -10.4486    0.0000 C   0  0  0  0  0  0  0  0  0  0  0  0
    7.0526  -11.4523    0.0000 C   0  0  0  0  0  0  0  0  0  0  0  0
    7.3645  -12.9195    0.0000 C   0  0  0  0  0  0  0  0  0  0  0  0
    8.7911  -13.3831    0.0000 C   0  0  0  0  0  0  0  0  0  0  0  0
    9.1029  -14.8503    0.0000 C   0  0  0  0  0  0  0  0  0  0  0  0
    9.4148  -16.3175    0.0000 N   0  0  0  0  0  0  0  0  0  0  0  0
    9.9058  -12.3794    0.0000 C   0  0  0  0  0  0  0  0  0  0  0  0
    9.5939  -10.9121    0.0000 N   0  0  0  0  0  0  0  0  0  0  0  0
    4.3786   -5.1199    0.0000 C   0  0  0  0  0  0  0  0  0  0  0  0
    0.7500   -1.2990    0.0000 C   0  0  0  0  0  0  0  0  0  0  0  0
    1.5000    0.0000    0.0000 C   0  0  0  0  0  0  0  0  0  0  0  0
    0.7500    1.2990    0.0000 N   0  0  0  0  0  0  0  0  0  0  0  0
   -0.7500    1.2990    0.0000 C   0  0  0  0  0  0  0  0  0  0  0  0
   -1.5000    2.5981    0.0000 N   0  0  0  0  0  0  0  0  0  0  0  0
   -1.5000    0.0000    0.0000 N   0  0  0  0  0  0  0  0  0  0  0  0
   -0.7500   -1.2990    0.0000 C   0  0  0  0  0  0  0  0  0  0  0  0
  1  2  1  0
  2  3  1  0
  2  4  1  0
  2  5  1  0
  5  6  1  0
  6  7  2  0
  7  8  1  0
  8  9  2  0
  8 10  1  0
 10 11  2  0
 11 12  1  0
 12 13  2  0
 13 14  1  0
 14 15  1  0
 15 16  1  0
 16 17  2  0
 16 18  1  0
 18 19  1  0
 19 20  2  0
 20 21  1  0
 21 22  2  0
 22 23  1  0
 23 24  3  0
 22 25  1  0
 25 26  2  0
 14 27  2  0
  7 28  1  0
 28 29  2  0
 29 30  1  0
 30 31  2  0
 31 32  1  0
 31 33  1  0
 33 34  2  0
 34  5  1  0
 27 10  1  0
 34 28  1  0
 26 19  1  0
M  END
>  <Compound_ID>  (20) 
CHEMBL3671406

>  <Molecule Name>  (20) 
nan

>  <Molecular Weight>  (20) 
454.49

>  <AlogP>  (20) 
2.84

>  <Smiles>  (20) 
CC(C)(C)n1cc(C(=O)c2cncc(NC(=O)Cc3ccc(C#N)cn3)c2)c2cnc(N)nc21

>  <Standard Type>  (20) 
IC50

>  <Standard Relation>  (20) 
'='

>  <Standard Units>  (20) 
nM

>  <Standard Value>  (20) 
5.9

>  <Assay ChEMBL ID>  (20) 
CHEMBL3887033

>  <Assay Description>  (20) 
Enzyme Assay: Isolated TRK Enzyme assays use the HTRF KinEASE-TK kit (Cisbio Cat# 62TK0PEJ) with recombinant His-tagged cytoplasmic domains of each TRK receptor sourced from Invitrogen (see table below). This activity-assay measures the phosphorylation of tyrosine residues within a substrate from the HTRF kit which has been validated by Cisbio for a variety of tyrosine kinases including the TRK receptors. Assay details: Target:TRKA; Invitrogen Cat# PV3144; Amino acids:aa 441-796; FAC enzyme:4nM; FAC ATP:40uM; Assay Reaction Time:35min.

>  <BAO Format ID>  (20) 
BAO_0000357

>  <BAO Label>  (20) 
single protein format

>  <Assay Organism>  (20) 
None

>  <Target ChEMBL ID>  (20) 
CHEMBL2815

>  <Target Name>  (20) 
Nerve growth factor receptor Trk-A

>  <Target Organism>  (20) 
Homo sapiens

>  <Target Type>  (20) 
SINGLE PROTEIN

>  <Document ChEMBL ID>  (20) 
CHEMBL3639348

>  <Source Description>  (20) 
BindingDB Database

>  <Document Journal>  (20) 
nan

>  <Document Year>  (20) 
2014.0

>  <Active>  (20) 
1.0

>  <bits>  (20) 
<rdkit.DataStructs.cDataStructs.ExplicitBitVect object at 0x00000159F5490F90>

>  <Group>  (20) 
G2

$$$$

     RDKit          2D

 36 39  0  0  0  0  0  0  0  0999 V2000
   -2.9520   -4.6564    0.0000 C   0  0  0  0  0  0  0  0  0  0  0  0
   -2.6401   -3.1891    0.0000 C   0  0  0  0  0  0  0  0  0  0  0  0
   -3.7548   -2.1855    0.0000 C   0  0  0  0  0  0  0  0  0  0  0  0
   -5.1814   -2.6490    0.0000 O   0  0  0  0  0  0  0  0  0  0  0  0
   -1.2135   -2.7256    0.0000 N   0  0  0  0  0  0  0  0  0  0  0  0
   -0.0000   -3.6073    0.0000 C   0  0  0  0  0  0  0  0  0  0  0  0
    1.2135   -2.7256    0.0000 C   0  0  0  0  0  0  0  0  0  0  0  0
    2.6401   -3.1891    0.0000 C   0  0  0  0  0  0  0  0  0  0  0  0
    3.7548   -2.1855    0.0000 O   0  0  0  0  0  0  0  0  0  0  0  0
    2.9520   -4.6564    0.0000 C   0  0  0  0  0  0  0  0  0  0  0  0
    1.8373   -5.6601    0.0000 C   0  0  0  0  0  0  0  0  0  0  0  0
    2.1491   -7.1273    0.0000 N   0  0  0  0  0  0  0  0  0  0  0  0
    3.5757   -7.5908    0.0000 C   0  0  0  0  0  0  0  0  0  0  0  0
    4.6904   -6.5871    0.0000 C   0  0  0  0  0  0  0  0  0  0  0  0
    6.1170   -7.0506    0.0000 N   0  0  0  0  0  0  0  0  0  0  0  0
    6.4289   -8.5179    0.0000 C   0  0  0  0  0  0  0  0  0  0  0  0
    5.3142   -9.5216    0.0000 O   0  0  0  0  0  0  0  0  0  0  0  0
    7.8555   -8.9814    0.0000 C   0  0  0  0  0  0  0  0  0  0  0  0
    8.1673  -10.4486    0.0000 C   0  0  0  0  0  0  0  0  0  0  0  0
    7.0526  -11.4523    0.0000 C   0  0  0  0  0  0  0  0  0  0  0  0
    7.3645  -12.9195    0.0000 C   0  0  0  0  0  0  0  0  0  0  0  0
    8.7911  -13.3831    0.0000 C   0  0  0  0  0  0  0  0  0  0  0  0
    9.1029  -14.8503    0.0000 O   0  0  0  0  0  0  0  0  0  0  0  0
    7.9882  -15.8540    0.0000 C   0  0  0  0  0  0  0  0  0  0  0  0
    6.8735  -16.8577    0.0000 F   0  0  0  0  0  0  0  0  0  0  0  0
    8.9919  -16.9687    0.0000 F   0  0  0  0  0  0  0  0  0  0  0  0
    6.9845  -14.7393    0.0000 F   0  0  0  0  0  0  0  0  0  0  0  0
    9.9058  -12.3794    0.0000 C   0  0  0  0  0  0  0  0  0  0  0  0
    9.5939  -10.9121    0.0000 C   0  0  0  0  0  0  0  0  0  0  0  0
    4.3786   -5.1199    0.0000 C   0  0  0  0  0  0  0  0  0  0  0  0
    0.7500   -1.2990    0.0000 C   0  0  0  0  0  0  0  0  0  0  0  0
    1.5000    0.0000    0.0000 C   0  0  0  0  0  0  0  0  0  0  0  0
    0.7500    1.2990    0.0000 N   0  0  0  0  0  0  0  0  0  0  0  0
   -0.7500    1.2990    0.0000 C   0  0  0  0  0  0  0  0  0  0  0  0
   -1.5000    0.0000    0.0000 N   0  0  0  0  0  0  0  0  0  0  0  0
   -0.7500   -1.2990    0.0000 C   0  0  0  0  0  0  0  0  0  0  0  0
  2  1  1  1
  2  3  1  0
  3  4  1  0
  2  5  1  0
  5  6  1  0
  6  7  2  0
  7  8  1  0
  8  9  2  0
  8 10  1  0
 10 11  2  0
 11 12  1  0
 12 13  2  0
 13 14  1  0
 14 15  1  0
 15 16  1  0
 16 17  2  0
 16 18  1  0
 18 19  1  0
 19 20  2  0
 20 21  1  0
 21 22  2  0
 22 23  1  0
 23 24  1  0
 24 25  1  0
 24 26  1  0
 24 27  1  0
 22 28  1  0
 28 29  2  0
 14 30  2  0
  7 31  1  0
 31 32  2  0
 32 33  1  0
 33 34  2  0
 34 35  1  0
 35 36  2  0
 36  5  1  0
 30 10  1  0
 36 31  1  0
 29 19  1  0
M  END
>  <Compound_ID>  (21) 
CHEMBL3671410

>  <Molecule Name>  (21) 
nan

>  <Molecular Weight>  (21) 
499.45

>  <AlogP>  (21) 
3.69

>  <Smiles>  (21) 
C[C@@H](CO)n1cc(C(=O)c2cncc(NC(=O)Cc3ccc(OC(F)(F)F)cc3)c2)c2cncnc21

>  <Standard Type>  (21) 
IC50

>  <Standard Relation>  (21) 
'='

>  <Standard Units>  (21) 
nM

>  <Standard Value>  (21) 
20.3

>  <Assay ChEMBL ID>  (21) 
CHEMBL3887033

>  <Assay Description>  (21) 
Enzyme Assay: Isolated TRK Enzyme assays use the HTRF KinEASE-TK kit (Cisbio Cat# 62TK0PEJ) with recombinant His-tagged cytoplasmic domains of each TRK receptor sourced from Invitrogen (see table below). This activity-assay measures the phosphorylation of tyrosine residues within a substrate from the HTRF kit which has been validated by Cisbio for a variety of tyrosine kinases including the TRK receptors. Assay details: Target:TRKA; Invitrogen Cat# PV3144; Amino acids:aa 441-796; FAC enzyme:4nM; FAC ATP:40uM; Assay Reaction Time:35min.

>  <BAO Format ID>  (21) 
BAO_0000357

>  <BAO Label>  (21) 
single protein format

>  <Assay Organism>  (21) 
None

>  <Target ChEMBL ID>  (21) 
CHEMBL2815

>  <Target Name>  (21) 
Nerve growth factor receptor Trk-A

>  <Target Organism>  (21) 
Homo sapiens

>  <Target Type>  (21) 
SINGLE PROTEIN

>  <Document ChEMBL ID>  (21) 
CHEMBL3639348

>  <Source Description>  (21) 
BindingDB Database

>  <Document Journal>  (21) 
nan

>  <Document Year>  (21) 
2014.0

>  <Active>  (21) 
1.0

>  <bits>  (21) 
<rdkit.DataStructs.cDataStructs.ExplicitBitVect object at 0x00000159F5490EB0>

>  <Group>  (21) 
G2

$$$$

     RDKit          2D

 42 48  0  0  0  0  0  0  0  0999 V2000
   -0.7500   -3.8971    0.0000 O   0  0  0  0  0  0  0  0  0  0  0  0
    0.7500   -3.8971    0.0000 C   0  0  0  0  0  0  0  0  0  0  0  0
    1.5000   -2.5981    0.0000 N   0  0  0  0  0  0  0  0  0  0  0  0
    0.7500   -1.2990    0.0000 C   0  0  0  0  0  0  0  0  0  0  0  0
    1.5000    0.0000    0.0000 C   0  0  0  0  0  0  0  0  0  0  0  0
    0.7500    1.2990    0.0000 N   0  0  0  0  0  0  0  0  0  0  0  0
   -0.7500    1.2990    0.0000 C   0  0  0  0  0  0  0  0  0  0  0  0
   -1.5000    2.5981    0.0000 O   0  0  0  0  0  0  0  0  0  0  0  0
   -0.7500    3.8971    0.0000 C   0  0  0  0  0  0  0  0  0  0  0  0
    0.7500    3.8971    0.0000 C   0  0  0  0  0  0  0  0  0  0  0  0
    1.5000    5.1962    0.0000 C   0  0  0  0  0  0  0  0  0  0  0  0
    0.7500    6.4952    0.0000 C   0  0  0  0  0  0  0  0  0  0  0  0
    1.5000    7.7942    0.0000 C   0  0  0  0  0  0  0  0  0  0  0  0
    0.8899    9.1645    0.0000 C   0  0  0  0  0  0  0  0  0  0  0  0
    2.0046   10.1682    0.0000 N   0  0  0  0  0  0  0  0  0  0  0  0
    3.3037    9.4182    0.0000 C   0  0  0  0  0  0  0  0  0  0  0  0
    4.6740   10.0283    0.0000 N   0  0  0  0  0  0  0  0  0  0  0  0
    4.9858   11.4956    0.0000 C   0  0  0  0  0  0  0  0  0  0  0  0
    6.4776   11.6524    0.0000 C   0  0  0  0  0  0  0  0  0  0  0  0
    7.0877   10.2820    0.0000 C   0  0  0  0  0  0  0  0  0  0  0  0
    5.9730    9.2783    0.0000 C   0  0  0  0  0  0  0  0  0  0  0  0
    6.1298    7.7866    0.0000 O   0  0  0  0  0  0  0  0  0  0  0  0
    2.9918    7.9510    0.0000 S   0  0  0  0  0  0  0  0  0  0  0  0
   -0.7500    6.4952    0.0000 C   0  0  0  0  0  0  0  0  0  0  0  0
   -1.5000    5.1962    0.0000 C   0  0  0  0  0  0  0  0  0  0  0  0
   -1.5000    0.0000    0.0000 N   0  0  0  0  0  0  0  0  0  0  0  0
   -0.7500   -1.2990    0.0000 C   0  0  0  0  0  0  0  0  0  0  0  0
    1.5000   -5.1962    0.0000 N   0  0  0  0  0  0  0  0  0  0  0  0
    0.7500   -6.4952    0.0000 C   0  0  0  0  0  0  0  0  0  0  0  0
   -0.7418   -6.6520    0.0000 C   0  0  0  0  0  0  0  0  0  0  0  0
   -1.0537   -8.1192    0.0000 C   0  0  0  0  0  0  0  0  0  0  0  0
   -2.4240   -8.7293    0.0000 C   0  0  0  0  0  0  0  0  0  0  0  0
   -3.9158   -8.5725    0.0000 C   0  0  0  0  0  0  0  0  0  0  0  0
   -3.3056   -9.9428    0.0000 C   0  0  0  0  0  0  0  0  0  0  0  0
    0.2454   -8.8692    0.0000 N   0  0  0  0  0  0  0  0  0  0  0  0
    1.3601   -7.8655    0.0000 N   0  0  0  0  0  0  0  0  0  0  0  0
    2.8273   -8.1774    0.0000 C   0  0  0  0  0  0  0  0  0  0  0  0
    3.2909   -9.6040    0.0000 C   0  0  0  0  0  0  0  0  0  0  0  0
    4.7581   -9.9158    0.0000 C   0  0  0  0  0  0  0  0  0  0  0  0
    5.7618   -8.8011    0.0000 C   0  0  0  0  0  0  0  0  0  0  0  0
    5.2982   -7.3745    0.0000 C   0  0  0  0  0  0  0  0  0  0  0  0
    3.8310   -7.0627    0.0000 C   0  0  0  0  0  0  0  0  0  0  0  0
  1  2  2  0
  2  3  1  0
  3  4  1  0
  4  5  2  0
  5  6  1  0
  6  7  2  0
  7  8  1  0
  8  9  1  0
  9 10  2  0
 10 11  1  0
 11 12  2  0
 12 13  1  0
 13 14  2  0
 14 15  1  0
 15 16  2  0
 16 17  1  0
 17 18  1  0
 18 19  1  0
 19 20  1  0
 20 21  1  0
 21 22  2  0
 16 23  1  0
 12 24  1  0
 24 25  2  0
  7 26  1  0
 26 27  2  0
  2 28  1  0
 28 29  1  0
 29 30  2  0
 30 31  1  0
 31 32  1  0
 32 33  1  0
 33 34  1  0
 31 35  2  0
 35 36  1  0
 36 37  1  0
 37 38  2  0
 38 39  1  0
 39 40  2  0
 40 41  1  0
 41 42  2  0
 27  4  1  0
 36 29  1  0
 42 37  1  0
 25  9  1  0
 34 32  1  0
 23 13  1  0
 21 17  1  0
M  END
>  <Compound_ID>  (22) 
CHEMBL3921702

>  <Molecule Name>  (22) 
nan

>  <Molecular Weight>  (22) 
578.66

>  <AlogP>  (22) 
6.23

>  <Smiles>  (22) 
O=C(Nc1cnc(Oc2ccc(-c3cnc(N4CCCC4=O)s3)cc2)nc1)Nc1cc(C2CC2)nn1-c1ccccc1

>  <Standard Type>  (22) 
IC50

>  <Standard Relation>  (22) 
'='

>  <Standard Units>  (22) 
nM

>  <Standard Value>  (22) 
30.0

>  <Assay ChEMBL ID>  (22) 
CHEMBL3887906

>  <Assay Description>  (22) 
LanthaScreen Kinase Assay: TrkA-inhibiting activity was measured according to the following method using LanthaScreen kinase assay reagents (Invitrogen; Fluorescein-Poly GT, LanthaScreen Tb-PY20 and TR-FRET Dilution Buffer), TrkA (Invitrogen), ATP (Sigma-Aldrich), a kinase reaction buffer (50 mM HEPES buffer (Sigma-Aldrich) (pH 7.5) containing 0.01% Brij35 (Sigma-Aldrich), 10 mM MgCl2 (Sigma-Aldrich) and 1 mM EGTA (Sigma-Aldrich)) and 0.5 M EDTA (pH 8.0) (Invitrogen).The present compound was dissolved in dimethylsulfoxide (hereinafter abbreviated as DMSO) to prepare a 10 mM solution. The test compound at 10 mM was distributed into a 96-well plate and serially diluted with DMSO with the geometrical ratio of 3. The serial dilutions (DMSO solutions) were diluted with the kinase reaction buffer to 20-fold to prepare solutions of the present compound with 5-times concentrations (DMSO concentration: 5%). TrkA was diluted with the kinase reaction buffer to prepare a solution at 38.5 ng/mL (enzyme solution). Adenosine

>  <BAO Format ID>  (22) 
BAO_0000357

>  <BAO Label>  (22) 
single protein format

>  <Assay Organism>  (22) 
None

>  <Target ChEMBL ID>  (22) 
CHEMBL2815

>  <Target Name>  (22) 
Nerve growth factor receptor Trk-A

>  <Target Organism>  (22) 
Homo sapiens

>  <Target Type>  (22) 
SINGLE PROTEIN

>  <Document ChEMBL ID>  (22) 
CHEMBL3886498

>  <Source Description>  (22) 
BindingDB Database

>  <Document Journal>  (22) 
nan

>  <Document Year>  (22) 
2016.0

>  <Active>  (22) 
1.0

>  <bits>  (22) 
<rdkit.DataStructs.cDataStructs.ExplicitBitVect object at 0x00000159F5490900>

>  <Group>  (22) 
G2

$$$$

     RDKit          2D

 30 34  0  0  0  0  0  0  0  0999 V2000
    7.3934   -3.6905    0.0000 C   0  0  0  0  0  0  0  0  0  0  0  0
    5.9262   -3.3786    0.0000 O   0  0  0  0  0  0  0  0  0  0  0  0
    5.4627   -1.9520    0.0000 C   0  0  0  0  0  0  0  0  0  0  0  0
    6.4664   -0.8373    0.0000 N   0  0  0  0  0  0  0  0  0  0  0  0
    6.0029    0.5893    0.0000 C   0  0  0  0  0  0  0  0  0  0  0  0
    4.5356    0.9012    0.0000 C   0  0  0  0  0  0  0  0  0  0  0  0
    4.0721    2.3277    0.0000 F   0  0  0  0  0  0  0  0  0  0  0  0
    3.5320   -0.2136    0.0000 C   0  0  0  0  0  0  0  0  0  0  0  0
    3.9955   -1.6402    0.0000 C   0  0  0  0  0  0  0  0  0  0  0  0
    2.9918   -2.7549    0.0000 C   0  0  0  0  0  0  0  0  0  0  0  0
    3.3037   -4.2221    0.0000 C   0  0  0  0  0  0  0  0  0  0  0  0
    2.0046   -4.9721    0.0000 C   0  0  0  0  0  0  0  0  0  0  0  0
    0.8899   -3.9684    0.0000 C   0  0  0  0  0  0  0  0  0  0  0  0
    1.5000   -2.5981    0.0000 N   0  0  0  0  0  0  0  0  0  0  0  0
    0.7500   -1.2990    0.0000 C   0  0  0  0  0  0  0  0  0  0  0  0
    1.5000    0.0000    0.0000 C   0  0  0  0  0  0  0  0  0  0  0  0
    0.7500    1.2990    0.0000 C   0  0  0  0  0  0  0  0  0  0  0  0
   -0.7500    1.2990    0.0000 N   0  0  0  0  0  0  0  0  0  0  0  0
   -1.7537    2.4138    0.0000 N   0  0  0  0  0  0  0  0  0  0  0  0
   -3.1240    1.8037    0.0000 C   0  0  0  0  0  0  0  0  0  0  0  0
   -2.9672    0.3119    0.0000 C   0  0  0  0  0  0  0  0  0  0  0  0
   -4.0819   -0.6918    0.0000 C   0  0  0  0  0  0  0  0  0  0  0  0
   -3.7701   -2.1590    0.0000 O   0  0  0  0  0  0  0  0  0  0  0  0
   -5.5085   -0.2283    0.0000 N   0  0  0  0  0  0  0  0  0  0  0  0
   -6.1895    1.1082    0.0000 C   0  0  0  0  0  0  0  0  0  0  0  0
   -7.5260    0.4272    0.0000 C   0  0  0  0  0  0  0  0  0  0  0  0
   -8.9526    0.8907    0.0000 O   0  0  0  0  0  0  0  0  0  0  0  0
   -6.8450   -0.9093    0.0000 C   0  0  0  0  0  0  0  0  0  0  0  0
   -1.5000    0.0000    0.0000 C   0  0  0  0  0  0  0  0  0  0  0  0
   -0.7500   -1.2990    0.0000 N   0  0  0  0  0  0  0  0  0  0  0  0
  1  2  1  0
  2  3  1  0
  3  4  2  0
  4  5  1  0
  5  6  2  0
  6  7  1  0
  6  8  1  0
  8  9  2  0
 10  9  1  1
 10 11  1  0
 11 12  1  0
 12 13  1  0
 13 14  1  0
 14 15  1  0
 15 16  1  0
 16 17  2  0
 17 18  1  0
 18 19  1  0
 19 20  2  0
 20 21  1  0
 21 22  1  0
 22 23  2  0
 22 24  1  0
 24 25  1  0
 25 26  1  0
 26 27  1  0
 26 28  1  0
 21 29  2  0
 29 30  1  0
  9  3  1  0
 14 10  1  0
 30 15  2  0
 29 18  1  0
 28 24  1  0
M  END
>  <Compound_ID>  (23) 
CHEMBL3676013

>  <Molecule Name>  (23) 
nan

>  <Molecular Weight>  (23) 
412.43

>  <AlogP>  (23) 
1.43

>  <Smiles>  (23) 
COc1ncc(F)cc1[C@H]1CCCN1c1ccn2ncc(C(=O)N3CC(O)C3)c2n1

>  <Standard Type>  (23) 
IC50

>  <Standard Relation>  (23) 
'='

>  <Standard Units>  (23) 
nM

>  <Standard Value>  (23) 
32.7

>  <Assay ChEMBL ID>  (23) 
CHEMBL3887070

>  <Assay Description>  (23) 
ELISA Assay: An enzyme-linked immunosorbant assay (ELISA) was used to assess TrkA kinase activity in the presence of inhibitors. Immulon 4HBX 384-well microtiter plates (Thermo part #8755) were coated with a 0.025 mg/mL solution of poly (Glu, Ala, Tyr; 6:3:1; Sigma P3899). Various concentrations of test compound, 2.5 nM TrkA (Invitrogen Corp., histidine-tagged recombinant human TrkA, cytoplasmic domain), and 500 uM ATP were incubated for 25 minutes at ambient temperature in the coated plates while shaking The assay buffer consisted of 25 mM MOPS pH 7.5, 0.005% (v/v) Triton X-100 and 5 mM MgCl2. The reaction mixture was removed from the plate by washing with PBS containing 0.1% (v/v) Tween 20. The phosphorylated reaction product was detected using 0.2 ug/mL of a phosphotyrosine specific monoclonal antibody (clone PY20) conjugated to horseradish peroxidase in conjunction with the TMB Peroxidase Substrate System (KPL).

>  <BAO Format ID>  (23) 
BAO_0000357

>  <BAO Label>  (23) 
single protein format

>  <Assay Organism>  (23) 
None

>  <Target ChEMBL ID>  (23) 
CHEMBL2815

>  <Target Name>  (23) 
Nerve growth factor receptor Trk-A

>  <Target Organism>  (23) 
Homo sapiens

>  <Target Type>  (23) 
SINGLE PROTEIN

>  <Document ChEMBL ID>  (23) 
CHEMBL3638907

>  <Source Description>  (23) 
BindingDB Database

>  <Document Journal>  (23) 
nan

>  <Document Year>  (23) 
2014.0

>  <Active>  (23) 
1.0

>  <bits>  (23) 
<rdkit.DataStructs.cDataStructs.ExplicitBitVect object at 0x00000159F5490820>

>  <Group>  (23) 
G2

$$$$

     RDKit          2D

 29 32  0  0  0  0  0  0  0  0999 V2000
   -3.9150   -6.5465    0.0000 C   0  0  0  0  0  0  0  0  0  0  0  0
   -4.3786   -5.1199    0.0000 C   0  0  0  0  0  0  0  0  0  0  0  0
   -4.8421   -3.6933    0.0000 C   0  0  0  0  0  0  0  0  0  0  0  0
   -5.8051   -5.5834    0.0000 C   0  0  0  0  0  0  0  0  0  0  0  0
   -2.9520   -4.6564    0.0000 C   0  0  0  0  0  0  0  0  0  0  0  0
   -1.8373   -5.6601    0.0000 O   0  0  0  0  0  0  0  0  0  0  0  0
   -2.6401   -3.1891    0.0000 N   0  0  0  0  0  0  0  0  0  0  0  0
   -1.2135   -2.7256    0.0000 C   0  0  0  0  0  0  0  0  0  0  0  0
   -0.0000   -3.6073    0.0000 C   0  0  0  0  0  0  0  0  0  0  0  0
    1.2135   -2.7256    0.0000 N   0  0  0  0  0  0  0  0  0  0  0  0
    0.7500   -1.2990    0.0000 N   0  0  0  0  0  0  0  0  0  0  0  0
    1.5000    0.0000    0.0000 C   0  0  0  0  0  0  0  0  0  0  0  0
    0.7500    1.2990    0.0000 C   0  0  0  0  0  0  0  0  0  0  0  0
   -0.7500    1.2990    0.0000 C   0  0  0  0  0  0  0  0  0  0  0  0
   -1.5000    2.5981    0.0000 N   0  0  0  0  0  0  0  0  0  0  0  0
   -2.9918    2.7549    0.0000 C   0  0  0  0  0  0  0  0  0  0  0  0
   -3.3037    4.2221    0.0000 C   0  0  0  0  0  0  0  0  0  0  0  0
   -2.0046    4.9721    0.0000 C   0  0  0  0  0  0  0  0  0  0  0  0
   -0.8899    3.9684    0.0000 C   0  0  0  0  0  0  0  0  0  0  0  0
    0.5773    4.2803    0.0000 C   0  0  0  0  0  0  0  0  0  0  0  0
    1.5810    3.1655    0.0000 C   0  0  0  0  0  0  0  0  0  0  0  0
    3.0482    3.4774    0.0000 C   0  0  0  0  0  0  0  0  0  0  0  0
    4.0519    2.3627    0.0000 F   0  0  0  0  0  0  0  0  0  0  0  0
    3.5118    4.9040    0.0000 C   0  0  0  0  0  0  0  0  0  0  0  0
    2.5081    6.0187    0.0000 C   0  0  0  0  0  0  0  0  0  0  0  0
    1.0409    5.7068    0.0000 C   0  0  0  0  0  0  0  0  0  0  0  0
    0.0372    6.8216    0.0000 F   0  0  0  0  0  0  0  0  0  0  0  0
   -1.5000    0.0000    0.0000 N   0  0  0  0  0  0  0  0  0  0  0  0
   -0.7500   -1.2990    0.0000 C   0  0  0  0  0  0  0  0  0  0  0  0
  1  2  1  0
  2  3  1  0
  2  4  1  0
  2  5  1  0
  5  6  2  0
  5  7  1  0
  7  8  1  0
  8  9  1  0
  9 10  2  0
 10 11  1  0
 11 12  1  0
 12 13  2  0
 13 14  1  0
 14 15  1  0
 15 16  1  0
 16 17  1  0
 17 18  1  0
 18 19  1  0
 19 20  1  6
 20 21  2  0
 21 22  1  0
 22 23  1  0
 22 24  2  0
 24 25  1  0
 25 26  2  0
 26 27  1  0
 14 28  2  0
 28 29  1  0
 29  8  2  0
 29 11  1  0
 19 15  1  0
 26 20  1  0
M  END
>  <Compound_ID>  (24) 
CHEMBL4113479

>  <Molecule Name>  (24) 
nan

>  <Molecular Weight>  (24) 
399.45

>  <AlogP>  (24) 
4.33

>  <Smiles>  (24) 
CC(C)(C)C(=O)Nc1cnn2ccc(N3CCC[C@@H]3c3cc(F)ccc3F)nc12

>  <Standard Type>  (24) 
IC50

>  <Standard Relation>  (24) 
'='

>  <Standard Units>  (24) 
nM

>  <Standard Value>  (24) 
6.3

>  <Assay ChEMBL ID>  (24) 
CHEMBL3887076

>  <Assay Description>  (24) 
ELISA Assay: An enzyme-linked immunosorbant assay (ELISA) was used to assess TrkA kinase activity in the presence of inhibitors. Immulon 4HBX 384-well microtiter plates (Thermo part #8755) were coated with a 0.025 mg/mL solution of poly (Glu, Ala, Tyr; 6:3:1; Sigma P3899). Various concentrations of test compound, 2.5 nM TrkA (Invitrogen Corp., histidine-tagged recombinant human TrkA, cytoplasmic domain), and 500 uM ATP were incubated for 25 minutes at ambient temperature in the coated plates while shaking. The assay buffer consisted of 25 mM MOPS pH 7.5, 0.005% (v/v) Triton X-100 and 5 mM MgCl2. The reaction mixture was removed from the plate by washing with PBS containing 0.1% (v/v) Tween 20. The phosphorylated reaction product was detected using 0.2 ug/mL of a phosphotyrosine specific monoclonal antibody (clone PY20) conjugated to horseradish peroxidase in conjunction with the TMB Peroxidase Substrate System (KPL).

>  <BAO Format ID>  (24) 
BAO_0000357

>  <BAO Label>  (24) 
single protein format

>  <Assay Organism>  (24) 
None

>  <Target ChEMBL ID>  (24) 
CHEMBL2815

>  <Target Name>  (24) 
Nerve growth factor receptor Trk-A

>  <Target Organism>  (24) 
Homo sapiens

>  <Target Type>  (24) 
SINGLE PROTEIN

>  <Document ChEMBL ID>  (24) 
CHEMBL3886151

>  <Source Description>  (24) 
BindingDB Database

>  <Document Journal>  (24) 
nan

>  <Document Year>  (24) 
2014.0

>  <Active>  (24) 
1.0

>  <bits>  (24) 
<rdkit.DataStructs.cDataStructs.ExplicitBitVect object at 0x00000159F5492C00>

>  <Group>  (24) 
G2

$$$$

     RDKit          2D

 26 28  0  0  0  0  0  0  0  0999 V2000
    3.0000    0.0000    0.0000 C   0  0  0  0  0  0  0  0  0  0  0  0
    1.5000    0.0000    0.0000 C   0  0  0  0  0  0  0  0  0  0  0  0
    0.7500   -1.2990    0.0000 C   0  0  0  0  0  0  0  0  0  0  0  0
   -0.7500   -1.2990    0.0000 C   0  0  0  0  0  0  0  0  0  0  0  0
   -1.5000    0.0000    0.0000 C   0  0  0  0  0  0  0  0  0  0  0  0
   -3.0000    0.0000    0.0000 S   0  0  0  0  0  0  0  0  0  0  0  0
   -3.7500    1.2990    0.0000 C   0  0  0  0  0  0  0  0  0  0  0  0
   -5.2418    1.4558    0.0000 C   0  0  0  0  0  0  0  0  0  0  0  0
   -5.5537    2.9231    0.0000 N   0  0  0  0  0  0  0  0  0  0  0  0
   -4.2546    3.6731    0.0000 C   0  0  0  0  0  0  0  0  0  0  0  0
   -4.0978    5.1648    0.0000 N   0  0  0  0  0  0  0  0  0  0  0  0
   -5.3113    6.0465    0.0000 C   0  0  0  0  0  0  0  0  0  0  0  0
   -5.1546    7.5383    0.0000 C   0  0  0  0  0  0  0  0  0  0  0  0
   -6.3681    8.4200    0.0000 C   0  0  0  0  0  0  0  0  0  0  0  0
   -7.7384    7.8099    0.0000 C   0  0  0  0  0  0  0  0  0  0  0  0
   -7.8952    6.3181    0.0000 C   0  0  0  0  0  0  0  0  0  0  0  0
   -6.6817    5.4364    0.0000 N   0  0  0  0  0  0  0  0  0  0  0  0
   -3.1399    2.6694    0.0000 S   0  0  0  0  0  0  0  0  0  0  0  0
   -0.7500    1.2990    0.0000 C   0  0  0  0  0  0  0  0  0  0  0  0
    0.7500    1.2990    0.0000 C   0  0  0  0  0  0  0  0  0  0  0  0
    1.5000    2.5981    0.0000 N   0  0  0  0  0  0  0  0  0  0  0  0
    0.7500    3.8971    0.0000 C   0  0  0  0  0  0  0  0  0  0  0  0
   -0.7500    3.8971    0.0000 O   0  0  0  0  0  0  0  0  0  0  0  0
    1.5000    5.1962    0.0000 C   0  0  0  0  0  0  0  0  0  0  0  0
    0.7500    6.4952    0.0000 C   0  0  0  0  0  0  0  0  0  0  0  0
   -0.0000    7.7942    0.0000 N   0  0  0  0  0  0  0  0  0  0  0  0
  1  2  1  0
  2  3  2  0
  3  4  1  0
  4  5  2  0
  5  6  1  0
  6  7  1  0
  7  8  2  0
  8  9  1  0
  9 10  2  0
 10 11  1  0
 11 12  1  0
 12 13  2  0
 13 14  1  0
 14 15  2  0
 15 16  1  0
 16 17  2  0
 10 18  1  0
  5 19  1  0
 19 20  2  0
 20 21  1  0
 21 22  1  0
 22 23  2  0
 22 24  1  0
 24 25  1  0
 25 26  3  0
 20  2  1  0
 18  7  1  0
 17 12  1  0
M  END
>  <Compound_ID>  (25) 
CHEMBL254478

>  <Molecule Name>  (25) 
nan

>  <Molecular Weight>  (25) 
381.49

>  <AlogP>  (25) 
4.59

>  <Smiles>  (25) 
Cc1ccc(Sc2cnc(Nc3ccccn3)s2)cc1NC(=O)CC#N

>  <Standard Type>  (25) 
IC50

>  <Standard Relation>  (25) 
'='

>  <Standard Units>  (25) 
nM

>  <Standard Value>  (25) 
60.0

>  <Assay ChEMBL ID>  (25) 
CHEMBL928869

>  <Assay Description>  (25) 
Inhibition of TrkA

>  <BAO Format ID>  (25) 
BAO_0000357

>  <BAO Label>  (25) 
single protein format

>  <Assay Organism>  (25) 
None

>  <Target ChEMBL ID>  (25) 
CHEMBL2815

>  <Target Name>  (25) 
Nerve growth factor receptor Trk-A

>  <Target Organism>  (25) 
Homo sapiens

>  <Target Type>  (25) 
SINGLE PROTEIN

>  <Document ChEMBL ID>  (25) 
CHEMBL1140800

>  <Source Description>  (25) 
Scientific Literature

>  <Document Journal>  (25) 
Bioorg Med Chem Lett

>  <Document Year>  (25) 
2008.0

>  <Active>  (25) 
1.0

>  <bits>  (25) 
<rdkit.DataStructs.cDataStructs.ExplicitBitVect object at 0x00000159F54902E0>

>  <Group>  (25) 
G2

$$$$

     RDKit          2D

 31 34  0  0  0  0  0  0  0  0999 V2000
    7.3934   -3.6905    0.0000 C   0  0  0  0  0  0  0  0  0  0  0  0
    5.9262   -3.3786    0.0000 O   0  0  0  0  0  0  0  0  0  0  0  0
    5.4627   -1.9520    0.0000 C   0  0  0  0  0  0  0  0  0  0  0  0
    6.4664   -0.8373    0.0000 N   0  0  0  0  0  0  0  0  0  0  0  0
    6.0029    0.5893    0.0000 C   0  0  0  0  0  0  0  0  0  0  0  0
    4.5356    0.9012    0.0000 C   0  0  0  0  0  0  0  0  0  0  0  0
    4.0721    2.3277    0.0000 F   0  0  0  0  0  0  0  0  0  0  0  0
    3.5320   -0.2136    0.0000 C   0  0  0  0  0  0  0  0  0  0  0  0
    3.9955   -1.6402    0.0000 C   0  0  0  0  0  0  0  0  0  0  0  0
    2.9918   -2.7549    0.0000 C   0  0  0  0  0  0  0  0  0  0  0  0
    3.3037   -4.2221    0.0000 C   0  0  0  0  0  0  0  0  0  0  0  0
    2.0046   -4.9721    0.0000 C   0  0  0  0  0  0  0  0  0  0  0  0
    0.8899   -3.9684    0.0000 C   0  0  0  0  0  0  0  0  0  0  0  0
    1.5000   -2.5981    0.0000 N   0  0  0  0  0  0  0  0  0  0  0  0
    0.7500   -1.2990    0.0000 C   0  0  0  0  0  0  0  0  0  0  0  0
    1.5000    0.0000    0.0000 C   0  0  0  0  0  0  0  0  0  0  0  0
    0.7500    1.2990    0.0000 C   0  0  0  0  0  0  0  0  0  0  0  0
   -0.7500    1.2990    0.0000 N   0  0  0  0  0  0  0  0  0  0  0  0
   -1.7537    2.4138    0.0000 N   0  0  0  0  0  0  0  0  0  0  0  0
   -3.1240    1.8037    0.0000 C   0  0  0  0  0  0  0  0  0  0  0  0
   -2.9672    0.3119    0.0000 C   0  0  0  0  0  0  0  0  0  0  0  0
   -4.0819   -0.6918    0.0000 C   0  0  0  0  0  0  0  0  0  0  0  0
   -3.7701   -2.1590    0.0000 O   0  0  0  0  0  0  0  0  0  0  0  0
   -5.5085   -0.2283    0.0000 N   0  0  0  0  0  0  0  0  0  0  0  0
   -6.6232   -1.2320    0.0000 C   0  0  0  0  0  0  0  0  0  0  0  0
   -8.0498   -0.7685    0.0000 C   0  0  0  0  0  0  0  0  0  0  0  0
   -7.5863    0.6581    0.0000 C   0  0  0  0  0  0  0  0  0  0  0  0
   -8.5134   -2.1951    0.0000 C   0  0  0  0  0  0  0  0  0  0  0  0
   -9.4764   -0.3049    0.0000 O   0  0  0  0  0  0  0  0  0  0  0  0
   -1.5000    0.0000    0.0000 C   0  0  0  0  0  0  0  0  0  0  0  0
   -0.7500   -1.2990    0.0000 N   0  0  0  0  0  0  0  0  0  0  0  0
  1  2  1  0
  2  3  1  0
  3  4  2  0
  4  5  1  0
  5  6  2  0
  6  7  1  0
  6  8  1  0
  8  9  2  0
 10  9  1  1
 10 11  1  0
 11 12  1  0
 12 13  1  0
 13 14  1  0
 14 15  1  0
 15 16  1  0
 16 17  2  0
 17 18  1  0
 18 19  1  0
 19 20  2  0
 20 21  1  0
 21 22  1  0
 22 23  2  0
 22 24  1  0
 24 25  1  0
 25 26  1  0
 26 27  1  0
 26 28  1  0
 26 29  1  0
 21 30  2  0
 30 31  1  0
  9  3  1  0
 14 10  1  0
 31 15  2  0
 30 18  1  0
M  END
>  <Compound_ID>  (26) 
CHEMBL3676029

>  <Molecule Name>  (26) 
nan

>  <Molecular Weight>  (26) 
428.47

>  <AlogP>  (26) 
2.11

>  <Smiles>  (26) 
COc1ncc(F)cc1[C@H]1CCCN1c1ccn2ncc(C(=O)NCC(C)(C)O)c2n1

>  <Standard Type>  (26) 
IC50

>  <Standard Relation>  (26) 
'='

>  <Standard Units>  (26) 
nM

>  <Standard Value>  (26) 
9.9

>  <Assay ChEMBL ID>  (26) 
CHEMBL3887070

>  <Assay Description>  (26) 
ELISA Assay: An enzyme-linked immunosorbant assay (ELISA) was used to assess TrkA kinase activity in the presence of inhibitors. Immulon 4HBX 384-well microtiter plates (Thermo part #8755) were coated with a 0.025 mg/mL solution of poly (Glu, Ala, Tyr; 6:3:1; Sigma P3899). Various concentrations of test compound, 2.5 nM TrkA (Invitrogen Corp., histidine-tagged recombinant human TrkA, cytoplasmic domain), and 500 uM ATP were incubated for 25 minutes at ambient temperature in the coated plates while shaking The assay buffer consisted of 25 mM MOPS pH 7.5, 0.005% (v/v) Triton X-100 and 5 mM MgCl2. The reaction mixture was removed from the plate by washing with PBS containing 0.1% (v/v) Tween 20. The phosphorylated reaction product was detected using 0.2 ug/mL of a phosphotyrosine specific monoclonal antibody (clone PY20) conjugated to horseradish peroxidase in conjunction with the TMB Peroxidase Substrate System (KPL).

>  <BAO Format ID>  (26) 
BAO_0000357

>  <BAO Label>  (26) 
single protein format

>  <Assay Organism>  (26) 
None

>  <Target ChEMBL ID>  (26) 
CHEMBL2815

>  <Target Name>  (26) 
Nerve growth factor receptor Trk-A

>  <Target Organism>  (26) 
Homo sapiens

>  <Target Type>  (26) 
SINGLE PROTEIN

>  <Document ChEMBL ID>  (26) 
CHEMBL3638907

>  <Source Description>  (26) 
BindingDB Database

>  <Document Journal>  (26) 
nan

>  <Document Year>  (26) 
2014.0

>  <Active>  (26) 
1.0

>  <bits>  (26) 
<rdkit.DataStructs.cDataStructs.ExplicitBitVect object at 0x00000159F5492B20>

>  <Group>  (26) 
G2

$$$$

     RDKit          2D

 31 34  0  0  0  0  0  0  0  0999 V2000
   -2.9520   -4.6564    0.0000 C   0  0  0  0  0  0  0  0  0  0  0  0
   -2.6401   -3.1891    0.0000 C   0  0  0  0  0  0  0  0  0  0  0  0
   -3.7548   -2.1855    0.0000 C   0  0  0  0  0  0  0  0  0  0  0  0
   -1.2135   -2.7256    0.0000 N   0  0  0  0  0  0  0  0  0  0  0  0
   -0.0000   -3.6073    0.0000 C   0  0  0  0  0  0  0  0  0  0  0  0
    1.2135   -2.7256    0.0000 C   0  0  0  0  0  0  0  0  0  0  0  0
    2.6401   -3.1891    0.0000 C   0  0  0  0  0  0  0  0  0  0  0  0
    3.7548   -2.1855    0.0000 O   0  0  0  0  0  0  0  0  0  0  0  0
    2.9520   -4.6564    0.0000 C   0  0  0  0  0  0  0  0  0  0  0  0
    1.8373   -5.6601    0.0000 C   0  0  0  0  0  0  0  0  0  0  0  0
    2.1491   -7.1273    0.0000 C   0  0  0  0  0  0  0  0  0  0  0  0
    3.5757   -7.5908    0.0000 N   0  0  0  0  0  0  0  0  0  0  0  0
    4.6904   -6.5871    0.0000 C   0  0  0  0  0  0  0  0  0  0  0  0
    6.1170   -7.0506    0.0000 N   0  0  0  0  0  0  0  0  0  0  0  0
    6.4289   -8.5179    0.0000 C   0  0  0  0  0  0  0  0  0  0  0  0
    5.3142   -9.5216    0.0000 O   0  0  0  0  0  0  0  0  0  0  0  0
    7.8555   -8.9814    0.0000 C   0  0  0  0  0  0  0  0  0  0  0  0
    8.1673  -10.4486    0.0000 C   0  0  0  0  0  0  0  0  0  0  0  0
    7.0526  -11.4523    0.0000 C   0  0  0  0  0  0  0  0  0  0  0  0
    7.3645  -12.9195    0.0000 C   0  0  0  0  0  0  0  0  0  0  0  0
    8.7911  -13.3831    0.0000 C   0  0  0  0  0  0  0  0  0  0  0  0
    9.9058  -12.3794    0.0000 C   0  0  0  0  0  0  0  0  0  0  0  0
   11.3324  -12.8429    0.0000 Cl  0  0  0  0  0  0  0  0  0  0  0  0
    9.5939  -10.9121    0.0000 C   0  0  0  0  0  0  0  0  0  0  0  0
    4.3786   -5.1199    0.0000 C   0  0  0  0  0  0  0  0  0  0  0  0
    0.7500   -1.2990    0.0000 C   0  0  0  0  0  0  0  0  0  0  0  0
    1.5000    0.0000    0.0000 C   0  0  0  0  0  0  0  0  0  0  0  0
    0.7500    1.2990    0.0000 N   0  0  0  0  0  0  0  0  0  0  0  0
   -0.7500    1.2990    0.0000 C   0  0  0  0  0  0  0  0  0  0  0  0
   -1.5000    0.0000    0.0000 C   0  0  0  0  0  0  0  0  0  0  0  0
   -0.7500   -1.2990    0.0000 C   0  0  0  0  0  0  0  0  0  0  0  0
  1  2  1  0
  2  3  1  0
  2  4  1  0
  4  5  1  0
  5  6  2  0
  6  7  1  0
  7  8  2  0
  7  9  1  0
  9 10  2  0
 10 11  1  0
 11 12  2  0
 12 13  1  0
 13 14  1  0
 14 15  1  0
 15 16  2  0
 15 17  1  0
 17 18  1  0
 18 19  2  0
 19 20  1  0
 20 21  2  0
 21 22  1  0
 22 23  1  0
 22 24  2  0
 13 25  2  0
  6 26  1  0
 26 27  2  0
 27 28  1  0
 28 29  2  0
 29 30  1  0
 30 31  2  0
 31  4  1  0
 25  9  1  0
 31 26  1  0
 24 18  1  0
M  END
>  <Compound_ID>  (27) 
CHEMBL3926644

>  <Molecule Name>  (27) 
nan

>  <Molecular Weight>  (27) 
432.91

>  <AlogP>  (27) 
5.08

>  <Smiles>  (27) 
CC(C)n1cc(C(=O)c2ccnc(NC(=O)Cc3cccc(Cl)c3)c2)c2cnccc21

>  <Standard Type>  (27) 
IC50

>  <Standard Relation>  (27) 
'='

>  <Standard Units>  (27) 
nM

>  <Standard Value>  (27) 
13.8

>  <Assay ChEMBL ID>  (27) 
CHEMBL3887111

>  <Assay Description>  (27) 
HTRF Assay: Isolated TRK Enzyme assays use the HTRF KinEASE-TK kit (Cisbio Cat#62TK0PEJ) with recombinant His-tagged cytoplasmic domains of each TRK receptor sourced from Invitrogen (see table below). This activity-assay measures the phosphorylation of tyrosine residues within a substrate from the HTRF kit which has been validated by Cisbio for a variety of tyrosine kinases including the TRK receptors.Assay Details: Invitrogen Amino FAC FAC Assay ReactionTarget Cat# acids enzyme ATP TimeTRKA PV3144 aa 441-4 nM 40 uM 35 min (NTRK1) 796 TRKB PV3616 aa 526-1 nM 1.4 uM 40 min (NTRK2) 838 TRKC PV3617 aa 510- 10 nM 15 uM 30 min (NTRK3) 8250.5 mM stock solutions of test compounds are prepared and serially diluted in 100% DMSO. A standard curve using the compound of Example 135 disclosed in WO2005/116035 of 150 uM is also prepared on each test plate. High percentage effect (HPE) is defined by 150 uM.

>  <BAO Format ID>  (27) 
BAO_0000357

>  <BAO Label>  (27) 
single protein format

>  <Assay Organism>  (27) 
None

>  <Target ChEMBL ID>  (27) 
CHEMBL2815

>  <Target Name>  (27) 
Nerve growth factor receptor Trk-A

>  <Target Organism>  (27) 
Homo sapiens

>  <Target Type>  (27) 
SINGLE PROTEIN

>  <Document ChEMBL ID>  (27) 
CHEMBL3886170

>  <Source Description>  (27) 
BindingDB Database

>  <Document Journal>  (27) 
nan

>  <Document Year>  (27) 
2015.0

>  <Active>  (27) 
1.0

>  <bits>  (27) 
<rdkit.DataStructs.cDataStructs.ExplicitBitVect object at 0x00000159F54900B0>

>  <Group>  (27) 
G2

$$$$

     RDKit          2D

 40 44  0  0  0  0  0  0  0  0999 V2000
   -2.9520   -4.6564    0.0000 C   0  0  0  0  0  0  0  0  0  0  0  0
   -2.6401   -3.1891    0.0000 C   0  0  0  0  0  0  0  0  0  0  0  0
   -3.7548   -2.1855    0.0000 C   0  0  0  0  0  0  0  0  0  0  0  0
   -1.2135   -2.7256    0.0000 N   0  0  0  0  0  0  0  0  0  0  0  0
   -0.0000   -3.6073    0.0000 C   0  0  0  0  0  0  0  0  0  0  0  0
    1.2135   -2.7256    0.0000 C   0  0  0  0  0  0  0  0  0  0  0  0
    2.6401   -3.1891    0.0000 C   0  0  0  0  0  0  0  0  0  0  0  0
    3.7548   -2.1855    0.0000 O   0  0  0  0  0  0  0  0  0  0  0  0
    2.9520   -4.6564    0.0000 C   0  0  0  0  0  0  0  0  0  0  0  0
    1.8373   -5.6601    0.0000 C   0  0  0  0  0  0  0  0  0  0  0  0
    2.1491   -7.1273    0.0000 N   0  0  0  0  0  0  0  0  0  0  0  0
    3.5757   -7.5908    0.0000 C   0  0  0  0  0  0  0  0  0  0  0  0
    4.6904   -6.5871    0.0000 C   0  0  0  0  0  0  0  0  0  0  0  0
    6.1170   -7.0506    0.0000 N   0  0  0  0  0  0  0  0  0  0  0  0
    6.4289   -8.5179    0.0000 C   0  0  0  0  0  0  0  0  0  0  0  0
    5.3142   -9.5216    0.0000 O   0  0  0  0  0  0  0  0  0  0  0  0
    7.8555   -8.9814    0.0000 C   0  0  0  0  0  0  0  0  0  0  0  0
    8.9702   -7.9777    0.0000 N   0  0  0  0  0  0  0  0  0  0  0  0
    8.1673  -10.4486    0.0000 C   0  0  0  0  0  0  0  0  0  0  0  0
    9.5939  -10.9121    0.0000 C   0  0  0  0  0  0  0  0  0  0  0  0
    9.9058  -12.3794    0.0000 C   0  0  0  0  0  0  0  0  0  0  0  0
   11.3324  -12.8429    0.0000 C   0  0  0  0  0  0  0  0  0  0  0  0
   12.4471  -11.8392    0.0000 C   0  0  0  0  0  0  0  0  0  0  0  0
   13.8737  -12.3027    0.0000 C   0  0  0  0  0  0  0  0  0  0  0  0
   14.9884  -11.2990    0.0000 O   0  0  0  0  0  0  0  0  0  0  0  0
   14.1855  -13.7699    0.0000 C   0  0  0  0  0  0  0  0  0  0  0  0
   13.0708  -14.7736    0.0000 C   0  0  0  0  0  0  0  0  0  0  0  0
   13.3827  -16.2409    0.0000 C   0  0  0  0  0  0  0  0  0  0  0  0
   14.8093  -16.7044    0.0000 C   0  0  0  0  0  0  0  0  0  0  0  0
   15.9240  -15.7007    0.0000 C   0  0  0  0  0  0  0  0  0  0  0  0
   15.6121  -14.2335    0.0000 C   0  0  0  0  0  0  0  0  0  0  0  0
   12.1352  -10.3720    0.0000 C   0  0  0  0  0  0  0  0  0  0  0  0
   10.7086   -9.9084    0.0000 C   0  0  0  0  0  0  0  0  0  0  0  0
    4.3786   -5.1199    0.0000 C   0  0  0  0  0  0  0  0  0  0  0  0
    0.7500   -1.2990    0.0000 C   0  0  0  0  0  0  0  0  0  0  0  0
    1.5000    0.0000    0.0000 C   0  0  0  0  0  0  0  0  0  0  0  0
    0.7500    1.2990    0.0000 N   0  0  0  0  0  0  0  0  0  0  0  0
   -0.7500    1.2990    0.0000 C   0  0  0  0  0  0  0  0  0  0  0  0
   -1.5000    0.0000    0.0000 N   0  0  0  0  0  0  0  0  0  0  0  0
   -0.7500   -1.2990    0.0000 C   0  0  0  0  0  0  0  0  0  0  0  0
  1  2  1  0
  2  3  1  0
  2  4  1  0
  4  5  1  0
  5  6  2  0
  6  7  1  0
  7  8  2  0
  7  9  1  0
  9 10  2  0
 10 11  1  0
 11 12  2  0
 12 13  1  0
 13 14  1  0
 14 15  1  0
 15 16  2  0
 15 17  1  0
 17 18  1  6
 17 19  1  0
 19 20  1  0
 20 21  2  0
 21 22  1  0
 22 23  2  0
 23 24  1  0
 24 25  2  0
 24 26  1  0
 26 27  2  0
 27 28  1  0
 28 29  2  0
 29 30  1  0
 30 31  2  0
 23 32  1  0
 32 33  2  0
 13 34  2  0
  6 35  1  0
 35 36  2  0
 36 37  1  0
 37 38  2  0
 38 39  1  0
 39 40  2  0
 40  4  1  0
 34  9  1  0
 40 35  1  0
 33 20  1  0
 31 26  1  0
M  END
>  <Compound_ID>  (28) 
CHEMBL3666285

>  <Molecule Name>  (28) 
nan

>  <Molecular Weight>  (28) 
532.6

>  <AlogP>  (28) 
4.38

>  <Smiles>  (28) 
CC(C)n1cc(C(=O)c2cncc(NC(=O)[C@H](N)Cc3ccc(C(=O)c4ccccc4)cc3)c2)c2cncnc21

>  <Standard Type>  (28) 
IC50

>  <Standard Relation>  (28) 
'='

>  <Standard Units>  (28) 
nM

>  <Standard Value>  (28) 
19.5

>  <Assay ChEMBL ID>  (28) 
CHEMBL3887033

>  <Assay Description>  (28) 
Enzyme Assay: Isolated TRK Enzyme assays use the HTRF KinEASE-TK kit (Cisbio Cat# 62TK0PEJ) with recombinant His-tagged cytoplasmic domains of each TRK receptor sourced from Invitrogen (see table below). This activity-assay measures the phosphorylation of tyrosine residues within a substrate from the HTRF kit which has been validated by Cisbio for a variety of tyrosine kinases including the TRK receptors. Assay details: Target:TRKA; Invitrogen Cat# PV3144; Amino acids:aa 441-796; FAC enzyme:4nM; FAC ATP:40uM; Assay Reaction Time:35min.

>  <BAO Format ID>  (28) 
BAO_0000357

>  <BAO Label>  (28) 
single protein format

>  <Assay Organism>  (28) 
None

>  <Target ChEMBL ID>  (28) 
CHEMBL2815

>  <Target Name>  (28) 
Nerve growth factor receptor Trk-A

>  <Target Organism>  (28) 
Homo sapiens

>  <Target Type>  (28) 
SINGLE PROTEIN

>  <Document ChEMBL ID>  (28) 
CHEMBL3639348

>  <Source Description>  (28) 
BindingDB Database

>  <Document Journal>  (28) 
nan

>  <Document Year>  (28) 
2014.0

>  <Active>  (28) 
1.0

>  <bits>  (28) 
<rdkit.DataStructs.cDataStructs.ExplicitBitVect object at 0x00000159F54938B0>

>  <Group>  (28) 
G2

$$$$

     RDKit          2D

 33 38  0  0  0  0  0  0  0  0999 V2000
    7.8555   -8.9814    0.0000 C   0  0  0  0  0  0  0  0  0  0  0  0
    6.4289   -8.5179    0.0000 C   0  0  0  0  0  0  0  0  0  0  0  0
    6.1170   -7.0506    0.0000 C   0  0  0  0  0  0  0  0  0  0  0  0
    4.6904   -6.5871    0.0000 N   0  0  0  0  0  0  0  0  0  0  0  0
    4.3786   -5.1199    0.0000 C   0  0  0  0  0  0  0  0  0  0  0  0
    5.4933   -4.1162    0.0000 O   0  0  0  0  0  0  0  0  0  0  0  0
    2.9520   -4.6564    0.0000 O   0  0  0  0  0  0  0  0  0  0  0  0
    2.6401   -3.1891    0.0000 C   0  0  0  0  0  0  0  0  0  0  0  0
    3.7548   -2.1855    0.0000 C   0  0  0  0  0  0  0  0  0  0  0  0
    1.2135   -2.7256    0.0000 C   0  0  0  0  0  0  0  0  0  0  0  0
    0.7500   -1.2990    0.0000 C   0  0  0  0  0  0  0  0  0  0  0  0
    1.5000    0.0000    0.0000 C   0  0  0  0  0  0  0  0  0  0  0  0
    0.7500    1.2990    0.0000 C   0  0  0  0  0  0  0  0  0  0  0  0
   -0.7500    1.2990    0.0000 C   0  0  0  0  0  0  0  0  0  0  0  0
   -1.5000    0.0000    0.0000 C   0  0  0  0  0  0  0  0  0  0  0  0
   -0.7500   -1.2990    0.0000 C   0  0  0  0  0  0  0  0  0  0  0  0
   -1.2135   -2.7256    0.0000 C   0  0  0  0  0  0  0  0  0  0  0  0
   -2.5838   -3.3357    0.0000 C   0  0  0  0  0  0  0  0  0  0  0  0
   -2.7406   -4.8275    0.0000 C   0  0  0  0  0  0  0  0  0  0  0  0
   -1.5271   -5.7092    0.0000 C   0  0  0  0  0  0  0  0  0  0  0  0
   -0.1568   -5.0991    0.0000 C   0  0  0  0  0  0  0  0  0  0  0  0
    0.8469   -6.2138    0.0000 N   0  0  0  0  0  0  0  0  0  0  0  0
    0.0969   -7.5128    0.0000 C   0  0  0  0  0  0  0  0  0  0  0  0
    0.5604   -8.9394    0.0000 C   0  0  0  0  0  0  0  0  0  0  0  0
   -0.4433  -10.0541    0.0000 C   0  0  0  0  0  0  0  0  0  0  0  0
   -1.9105   -9.7423    0.0000 C   0  0  0  0  0  0  0  0  0  0  0  0
   -2.3740   -8.3157    0.0000 C   0  0  0  0  0  0  0  0  0  0  0  0
   -1.3703   -7.2010    0.0000 C   0  0  0  0  0  0  0  0  0  0  0  0
   -0.0000   -3.6073    0.0000 C   0  0  0  0  0  0  0  0  0  0  0  0
   -4.2079   -5.1394    0.0000 C   0  0  0  0  0  0  0  0  0  0  0  0
   -4.9579   -3.8403    0.0000 N   0  0  0  0  0  0  0  0  0  0  0  0
   -3.9542   -2.7256    0.0000 C   0  0  0  0  0  0  0  0  0  0  0  0
   -4.2660   -1.2584    0.0000 O   0  0  0  0  0  0  0  0  0  0  0  0
  1  2  2  0
  2  3  1  0
  3  4  1  0
  4  5  1  0
  5  6  2  0
  5  7  1  0
  7  8  1  0
  8  9  1  1
  8 10  1  0
 10 11  1  6
 11 12  2  0
 12 13  1  0
 13 14  2  0
 14 15  1  0
 15 16  2  0
 16 17  1  0
 17 18  2  0
 18 19  1  0
 19 20  2  0
 20 21  1  0
 21 22  1  0
 22 23  1  0
 23 24  2  0
 24 25  1  0
 25 26  2  0
 26 27  1  0
 27 28  2  0
 21 29  2  0
 19 30  1  0
 30 31  1  0
 31 32  1  0
 32 33  2  0
 29 10  1  0
 16 11  1  0
 29 17  1  0
 32 18  1  0
 28 20  1  0
 28 23  1  0
M  END
>  <Compound_ID>  (29) 
CHEMBL404385

>  <Molecule Name>  (29) 
nan

>  <Molecular Weight>  (29) 
437.5

>  <AlogP>  (29) 
4.98

>  <Smiles>  (29) 
C=CCNC(=O)O[C@H](C)[C@H]1c2ccccc2-c2c3c(c4c([nH]c5ccccc54)c21)CNC3=O

>  <Standard Type>  (29) 
IC50

>  <Standard Relation>  (29) 
'='

>  <Standard Units>  (29) 
nM

>  <Standard Value>  (29) 
33.0

>  <Assay ChEMBL ID>  (29) 
CHEMBL934847

>  <Assay Description>  (29) 
Inhibition of human recombinant TrkA

>  <BAO Format ID>  (29) 
BAO_0000357

>  <BAO Label>  (29) 
single protein format

>  <Assay Organism>  (29) 
Homo sapiens

>  <Target ChEMBL ID>  (29) 
CHEMBL2815

>  <Target Name>  (29) 
Nerve growth factor receptor Trk-A

>  <Target Organism>  (29) 
Homo sapiens

>  <Target Type>  (29) 
SINGLE PROTEIN

>  <Document ChEMBL ID>  (29) 
CHEMBL1145586

>  <Source Description>  (29) 
Scientific Literature

>  <Document Journal>  (29) 
Bioorg Med Chem Lett

>  <Document Year>  (29) 
2008.0

>  <Active>  (29) 
1.0

>  <bits>  (29) 
<rdkit.DataStructs.cDataStructs.ExplicitBitVect object at 0x00000159F54906D0>

>  <Group>  (29) 
G2

$$$$

     RDKit          2D

 33 36  0  0  0  0  0  0  0  0999 V2000
    3.0000    0.0000    0.0000 C   0  0  0  0  0  0  0  0  0  0  0  0
    1.5000    0.0000    0.0000 C   0  0  0  0  0  0  0  0  0  0  0  0
    0.7500   -1.2990    0.0000 C   0  0  0  0  0  0  0  0  0  0  0  0
   -0.7500   -1.2990    0.0000 C   0  0  0  0  0  0  0  0  0  0  0  0
   -1.5000    0.0000    0.0000 C   0  0  0  0  0  0  0  0  0  0  0  0
   -3.0000    0.0000    0.0000 N   0  0  0  0  0  0  0  0  0  0  0  0
   -3.7500    1.2990    0.0000 C   0  0  0  0  0  0  0  0  0  0  0  0
   -5.2500    1.2990    0.0000 C   0  0  0  0  0  0  0  0  0  0  0  0
   -6.0000    2.5981    0.0000 S   0  0  0  0  0  0  0  0  0  0  0  0
   -7.5000    2.5981    0.0000 C   0  0  0  0  0  0  0  0  0  0  0  0
   -8.3817    1.3846    0.0000 N   0  0  0  0  0  0  0  0  0  0  0  0
   -9.8083    1.8481    0.0000 N   0  0  0  0  0  0  0  0  0  0  0  0
   -9.8083    3.3481    0.0000 C   0  0  0  0  0  0  0  0  0  0  0  0
  -11.0218    4.2298    0.0000 N   0  0  0  0  0  0  0  0  0  0  0  0
  -10.8650    5.7215    0.0000 C   0  0  0  0  0  0  0  0  0  0  0  0
   -9.4947    6.3316    0.0000 O   0  0  0  0  0  0  0  0  0  0  0  0
  -12.0785    6.6032    0.0000 N   0  0  0  0  0  0  0  0  0  0  0  0
  -11.9217    8.0950    0.0000 C   0  0  0  0  0  0  0  0  0  0  0  0
  -10.5514    8.7051    0.0000 C   0  0  0  0  0  0  0  0  0  0  0  0
  -10.3946   10.1969    0.0000 C   0  0  0  0  0  0  0  0  0  0  0  0
  -11.6081   11.0786    0.0000 C   0  0  0  0  0  0  0  0  0  0  0  0
  -12.9785   10.4685    0.0000 C   0  0  0  0  0  0  0  0  0  0  0  0
  -14.1920   11.3501    0.0000 C   0  0  0  0  0  0  0  0  0  0  0  0
  -15.4055   12.2318    0.0000 F   0  0  0  0  0  0  0  0  0  0  0  0
  -13.3103   12.5637    0.0000 F   0  0  0  0  0  0  0  0  0  0  0  0
  -15.0737   10.1366    0.0000 F   0  0  0  0  0  0  0  0  0  0  0  0
  -13.1353    8.9767    0.0000 C   0  0  0  0  0  0  0  0  0  0  0  0
   -8.3817    3.8116    0.0000 S   0  0  0  0  0  0  0  0  0  0  0  0
   -3.0000    2.5981    0.0000 C   0  0  0  0  0  0  0  0  0  0  0  0
   -1.5000    2.5981    0.0000 C   0  0  0  0  0  0  0  0  0  0  0  0
   -0.7500    3.8971    0.0000 O   0  0  0  0  0  0  0  0  0  0  0  0
   -0.7500    1.2990    0.0000 N   0  0  0  0  0  0  0  0  0  0  0  0
    0.7500    1.2990    0.0000 C   0  0  0  0  0  0  0  0  0  0  0  0
  1  2  1  0
  2  3  1  0
  3  4  2  0
  4  5  1  0
  5  6  2  0
  6  7  1  0
  7  8  1  0
  8  9  1  0
  9 10  1  0
 10 11  2  0
 11 12  1  0
 12 13  2  0
 13 14  1  0
 14 15  1  0
 15 16  2  0
 15 17  1  0
 17 18  1  0
 18 19  2  0
 19 20  1  0
 20 21  2  0
 21 22  1  0
 22 23  1  0
 23 24  1  0
 23 25  1  0
 23 26  1  0
 22 27  2  0
 13 28  1  0
  7 29  2  0
 29 30  1  0
 30 31  2  0
 30 32  1  0
 32 33  1  0
 33  2  2  0
 32  5  1  0
 28 10  1  0
 27 18  1  0
M  END
>  <Compound_ID>  (30) 
CHEMBL4458913

>  <Molecule Name>  (30) 
nan

>  <Molecular Weight>  (30) 
492.51

>  <AlogP>  (30) 
4.81

>  <Smiles>  (30) 
Cc1ccc2nc(CSc3nnc(NC(=O)Nc4cccc(C(F)(F)F)c4)s3)cc(=O)n2c1

>  <Standard Type>  (30) 
Ki

>  <Standard Relation>  (30) 
'='

>  <Standard Units>  (30) 
nM

>  <Standard Value>  (30) 
67.0

>  <Assay ChEMBL ID>  (30) 
CHEMBL4308456

>  <Assay Description>  (30) 
Inhibition of human active TRKA assessed as decrease in substrate phosphorylation incubated for 2 hrs using CSKtide as substrate in presence of ATP measured every 5 minutes for 5 hrs by caliper method

>  <BAO Format ID>  (30) 
BAO_0000357

>  <BAO Label>  (30) 
single protein format

>  <Assay Organism>  (30) 
Homo sapiens

>  <Target ChEMBL ID>  (30) 
CHEMBL2815

>  <Target Name>  (30) 
Nerve growth factor receptor Trk-A

>  <Target Organism>  (30) 
Homo sapiens

>  <Target Type>  (30) 
SINGLE PROTEIN

>  <Document ChEMBL ID>  (30) 
CHEMBL4304826

>  <Source Description>  (30) 
Scientific Literature

>  <Document Journal>  (30) 
Bioorg Med Chem Lett

>  <Document Year>  (30) 
2019.0

>  <Active>  (30) 
1.0

>  <bits>  (30) 
<rdkit.DataStructs.cDataStructs.ExplicitBitVect object at 0x00000159F5493AE0>

>  <Group>  (30) 
G2

$$$$

     RDKit          2D

 29 32  0  0  0  0  0  0  0  0999 V2000
   -4.6904   -6.5871    0.0000 C   0  0  0  0  0  0  0  0  0  0  0  0
   -4.3786   -5.1199    0.0000 C   0  0  0  0  0  0  0  0  0  0  0  0
   -5.4933   -4.1162    0.0000 C   0  0  0  0  0  0  0  0  0  0  0  0
   -2.9520   -4.6564    0.0000 N   0  0  0  0  0  0  0  0  0  0  0  0
   -2.6401   -3.1891    0.0000 C   0  0  0  0  0  0  0  0  0  0  0  0
   -3.7548   -2.1855    0.0000 O   0  0  0  0  0  0  0  0  0  0  0  0
   -1.2135   -2.7256    0.0000 C   0  0  0  0  0  0  0  0  0  0  0  0
   -0.0000   -3.6073    0.0000 C   0  0  0  0  0  0  0  0  0  0  0  0
    1.2135   -2.7256    0.0000 N   0  0  0  0  0  0  0  0  0  0  0  0
    0.7500   -1.2990    0.0000 N   0  0  0  0  0  0  0  0  0  0  0  0
    1.5000    0.0000    0.0000 C   0  0  0  0  0  0  0  0  0  0  0  0
    0.7500    1.2990    0.0000 C   0  0  0  0  0  0  0  0  0  0  0  0
   -0.7500    1.2990    0.0000 C   0  0  0  0  0  0  0  0  0  0  0  0
   -1.5000    2.5981    0.0000 N   0  0  0  0  0  0  0  0  0  0  0  0
   -2.9918    2.7549    0.0000 C   0  0  0  0  0  0  0  0  0  0  0  0
   -3.9955    1.6402    0.0000 C   0  0  0  0  0  0  0  0  0  0  0  0
   -5.4627    1.9520    0.0000 O   0  0  0  0  0  0  0  0  0  0  0  0
   -3.3037    4.2221    0.0000 C   0  0  0  0  0  0  0  0  0  0  0  0
   -2.0046    4.9721    0.0000 C   0  0  0  0  0  0  0  0  0  0  0  0
   -0.8899    3.9684    0.0000 C   0  0  0  0  0  0  0  0  0  0  0  0
    0.5773    4.2803    0.0000 C   0  0  0  0  0  0  0  0  0  0  0  0
    1.5810    3.1655    0.0000 C   0  0  0  0  0  0  0  0  0  0  0  0
    3.0482    3.4774    0.0000 N   0  0  0  0  0  0  0  0  0  0  0  0
    3.5118    4.9040    0.0000 C   0  0  0  0  0  0  0  0  0  0  0  0
    2.5081    6.0187    0.0000 C   0  0  0  0  0  0  0  0  0  0  0  0
    2.9716    7.4453    0.0000 F   0  0  0  0  0  0  0  0  0  0  0  0
    1.0409    5.7068    0.0000 C   0  0  0  0  0  0  0  0  0  0  0  0
   -1.5000    0.0000    0.0000 N   0  0  0  0  0  0  0  0  0  0  0  0
   -0.7500   -1.2990    0.0000 C   0  0  0  0  0  0  0  0  0  0  0  0
  1  2  1  0
  2  3  1  0
  2  4  1  0
  4  5  1  0
  5  6  2  0
  5  7  1  0
  7  8  1  0
  8  9  2  0
  9 10  1  0
 10 11  1  0
 11 12  2  0
 12 13  1  0
 13 14  1  0
 14 15  1  0
 15 16  1  6
 16 17  1  0
 15 18  1  0
 18 19  1  0
 19 20  1  0
 20 21  1  6
 21 22  2  0
 22 23  1  0
 23 24  2  0
 24 25  1  0
 25 26  1  0
 25 27  2  0
 13 28  2  0
 28 29  1  0
 29  7  2  0
 29 10  1  0
 20 14  1  0
 27 21  1  0
M  END
>  <Compound_ID>  (31) 
CHEMBL3676080

>  <Molecule Name>  (31) 
nan

>  <Molecular Weight>  (31) 
398.44

>  <AlogP>  (31) 
2.1

>  <Smiles>  (31) 
CC(C)NC(=O)c1cnn2ccc(N3[C@H](CO)CC[C@@H]3c3cncc(F)c3)nc12

>  <Standard Type>  (31) 
IC50

>  <Standard Relation>  (31) 
'='

>  <Standard Units>  (31) 
nM

>  <Standard Value>  (31) 
15.3

>  <Assay ChEMBL ID>  (31) 
CHEMBL3887070

>  <Assay Description>  (31) 
ELISA Assay: An enzyme-linked immunosorbant assay (ELISA) was used to assess TrkA kinase activity in the presence of inhibitors. Immulon 4HBX 384-well microtiter plates (Thermo part #8755) were coated with a 0.025 mg/mL solution of poly (Glu, Ala, Tyr; 6:3:1; Sigma P3899). Various concentrations of test compound, 2.5 nM TrkA (Invitrogen Corp., histidine-tagged recombinant human TrkA, cytoplasmic domain), and 500 uM ATP were incubated for 25 minutes at ambient temperature in the coated plates while shaking The assay buffer consisted of 25 mM MOPS pH 7.5, 0.005% (v/v) Triton X-100 and 5 mM MgCl2. The reaction mixture was removed from the plate by washing with PBS containing 0.1% (v/v) Tween 20. The phosphorylated reaction product was detected using 0.2 ug/mL of a phosphotyrosine specific monoclonal antibody (clone PY20) conjugated to horseradish peroxidase in conjunction with the TMB Peroxidase Substrate System (KPL).

>  <BAO Format ID>  (31) 
BAO_0000357

>  <BAO Label>  (31) 
single protein format

>  <Assay Organism>  (31) 
None

>  <Target ChEMBL ID>  (31) 
CHEMBL2815

>  <Target Name>  (31) 
Nerve growth factor receptor Trk-A

>  <Target Organism>  (31) 
Homo sapiens

>  <Target Type>  (31) 
SINGLE PROTEIN

>  <Document ChEMBL ID>  (31) 
CHEMBL3638907

>  <Source Description>  (31) 
BindingDB Database

>  <Document Journal>  (31) 
nan

>  <Document Year>  (31) 
2014.0

>  <Active>  (31) 
1.0

>  <bits>  (31) 
<rdkit.DataStructs.cDataStructs.ExplicitBitVect object at 0x00000159F5493140>

>  <Group>  (31) 
G2

$$$$

     RDKit          2D

 34 38  0  0  0  0  0  0  0  0999 V2000
   -2.2447   -8.9500    0.0000 C   0  0  0  0  0  0  0  0  0  0  0  0
   -2.5565   -7.4827    0.0000 N   0  0  0  0  0  0  0  0  0  0  0  0
   -1.4418   -6.4791    0.0000 C   0  0  0  0  0  0  0  0  0  0  0  0
   -0.0152   -6.9426    0.0000 O   0  0  0  0  0  0  0  0  0  0  0  0
   -1.7537   -5.0118    0.0000 C   0  0  0  0  0  0  0  0  0  0  0  0
   -3.1240   -4.4017    0.0000 N   0  0  0  0  0  0  0  0  0  0  0  0
   -2.9672   -2.9099    0.0000 N   0  0  0  0  0  0  0  0  0  0  0  0
   -4.0819   -1.9062    0.0000 C   0  0  0  0  0  0  0  0  0  0  0  0
   -1.5000   -2.5981    0.0000 C   0  0  0  0  0  0  0  0  0  0  0  0
   -0.7500   -3.8971    0.0000 C   0  0  0  0  0  0  0  0  0  0  0  0
    0.7500   -3.8971    0.0000 C   0  0  0  0  0  0  0  0  0  0  0  0
    2.1595   -4.4101    0.0000 C   0  0  0  0  0  0  0  0  0  0  0  0
    0.4895   -5.3743    0.0000 C   0  0  0  0  0  0  0  0  0  0  0  0
    1.5000   -2.5981    0.0000 C   0  0  0  0  0  0  0  0  0  0  0  0
    0.7500   -1.2990    0.0000 C   0  0  0  0  0  0  0  0  0  0  0  0
    1.5000    0.0000    0.0000 C   0  0  0  0  0  0  0  0  0  0  0  0
    0.7500    1.2990    0.0000 N   0  0  0  0  0  0  0  0  0  0  0  0
   -0.7500    1.2990    0.0000 C   0  0  0  0  0  0  0  0  0  0  0  0
   -1.5000    2.5981    0.0000 N   0  0  0  0  0  0  0  0  0  0  0  0
   -0.7500    3.8971    0.0000 C   0  0  0  0  0  0  0  0  0  0  0  0
    0.7500    3.8971    0.0000 C   0  0  0  0  0  0  0  0  0  0  0  0
    1.5000    5.1962    0.0000 C   0  0  0  0  0  0  0  0  0  0  0  0
    0.7500    6.4952    0.0000 C   0  0  0  0  0  0  0  0  0  0  0  0
    1.5000    7.7942    0.0000 N   0  0  0  0  0  0  0  0  0  0  0  0
    3.0000    7.7942    0.0000 C   0  0  0  0  0  0  0  0  0  0  0  0
    3.7500    9.0933    0.0000 C   0  0  0  0  0  0  0  0  0  0  0  0
    3.0000   10.3923    0.0000 N   0  0  0  0  0  0  0  0  0  0  0  0
    3.7500   11.6913    0.0000 C   0  0  0  0  0  0  0  0  0  0  0  0
    1.5000   10.3923    0.0000 C   0  0  0  0  0  0  0  0  0  0  0  0
    0.7500    9.0933    0.0000 C   0  0  0  0  0  0  0  0  0  0  0  0
   -0.7500    6.4952    0.0000 C   0  0  0  0  0  0  0  0  0  0  0  0
   -1.5000    5.1962    0.0000 C   0  0  0  0  0  0  0  0  0  0  0  0
   -1.5000    0.0000    0.0000 N   0  0  0  0  0  0  0  0  0  0  0  0
   -0.7500   -1.2990    0.0000 C   0  0  0  0  0  0  0  0  0  0  0  0
  1  2  1  0
  2  3  1  0
  3  4  2  0
  3  5  1  0
  5  6  2  0
  6  7  1  0
  7  8  1  0
  7  9  1  0
  9 10  2  0
 10 11  1  0
 11 12  1  0
 11 13  1  0
 11 14  1  0
 14 15  1  0
 15 16  2  0
 16 17  1  0
 17 18  2  0
 18 19  1  0
 19 20  1  0
 20 21  2  0
 21 22  1  0
 22 23  2  0
 23 24  1  0
 24 25  1  0
 25 26  1  0
 26 27  1  0
 27 28  1  0
 27 29  1  0
 29 30  1  0
 23 31  1  0
 31 32  2  0
 18 33  1  0
 33 34  2  0
 10  5  1  0
 34 15  1  0
 34  9  1  0
 32 20  1  0
 30 24  1  0
M  END
>  <Compound_ID>  (32) 
CHEMBL564829

>  <Molecule Name>  (32) 
MILCICLIB

>  <Molecular Weight>  (32) 
460.59

>  <AlogP>  (32) 
2.57

>  <Smiles>  (32) 
CNC(=O)c1nn(C)c2c1C(C)(C)Cc1cnc(Nc3ccc(N4CCN(C)CC4)cc3)nc1-2

>  <Standard Type>  (32) 
IC50

>  <Standard Relation>  (32) 
'='

>  <Standard Units>  (32) 
nM

>  <Standard Value>  (32) 
53.0

>  <Assay ChEMBL ID>  (32) 
CHEMBL1058601

>  <Assay Description>  (32) 
Inhibition of TRKA

>  <BAO Format ID>  (32) 
BAO_0000357

>  <BAO Label>  (32) 
single protein format

>  <Assay Organism>  (32) 
None

>  <Target ChEMBL ID>  (32) 
CHEMBL2815

>  <Target Name>  (32) 
Nerve growth factor receptor Trk-A

>  <Target Organism>  (32) 
Homo sapiens

>  <Target Type>  (32) 
SINGLE PROTEIN

>  <Document ChEMBL ID>  (32) 
CHEMBL1151962

>  <Source Description>  (32) 
Scientific Literature

>  <Document Journal>  (32) 
J Med Chem

>  <Document Year>  (32) 
2009.0

>  <Active>  (32) 
1.0

>  <bits>  (32) 
<rdkit.DataStructs.cDataStructs.ExplicitBitVect object at 0x00000159F5492EA0>

>  <Group>  (32) 
G2

$$$$

     RDKit          2D

 22 25  0  0  0  0  0  0  0  0999 V2000
    5.2500   -3.8971    0.0000 N   0  0  0  0  0  0  0  0  0  0  0  0
    3.7500   -3.8971    0.0000 C   0  0  0  0  0  0  0  0  0  0  0  0
    3.0000   -5.1962    0.0000 C   0  0  0  0  0  0  0  0  0  0  0  0
    1.5000   -5.1962    0.0000 C   0  0  0  0  0  0  0  0  0  0  0  0
    0.7500   -3.8971    0.0000 C   0  0  0  0  0  0  0  0  0  0  0  0
    1.5000   -2.5981    0.0000 C   0  0  0  0  0  0  0  0  0  0  0  0
    0.7500   -1.2990    0.0000 C   0  0  0  0  0  0  0  0  0  0  0  0
    1.5000    0.0000    0.0000 C   0  0  0  0  0  0  0  0  0  0  0  0
    0.7500    1.2990    0.0000 N   0  0  0  0  0  0  0  0  0  0  0  0
   -0.7500    1.2990    0.0000 C   0  0  0  0  0  0  0  0  0  0  0  0
   -1.7537    2.4138    0.0000 N   0  0  0  0  0  0  0  0  0  0  0  0
   -3.1240    1.8037    0.0000 C   0  0  0  0  0  0  0  0  0  0  0  0
   -2.9672    0.3119    0.0000 C   0  0  0  0  0  0  0  0  0  0  0  0
   -4.0819   -0.6918    0.0000 C   0  0  0  0  0  0  0  0  0  0  0  0
   -5.5085   -0.2283    0.0000 C   0  0  0  0  0  0  0  0  0  0  0  0
   -6.6232   -1.2320    0.0000 C   0  0  0  0  0  0  0  0  0  0  0  0
   -6.3114   -2.6992    0.0000 N   0  0  0  0  0  0  0  0  0  0  0  0
   -4.8848   -3.1627    0.0000 C   0  0  0  0  0  0  0  0  0  0  0  0
   -3.7701   -2.1590    0.0000 C   0  0  0  0  0  0  0  0  0  0  0  0
   -1.5000    0.0000    0.0000 C   0  0  0  0  0  0  0  0  0  0  0  0
   -0.7500   -1.2990    0.0000 C   0  0  0  0  0  0  0  0  0  0  0  0
    3.0000   -2.5981    0.0000 C   0  0  0  0  0  0  0  0  0  0  0  0
  1  2  1  0
  2  3  2  0
  3  4  1  0
  4  5  2  0
  5  6  1  0
  6  7  1  0
  7  8  2  0
  8  9  1  0
  9 10  2  0
 10 11  1  0
 11 12  1  0
 12 13  2  0
 13 14  1  0
 14 15  2  0
 15 16  1  0
 16 17  2  0
 17 18  1  0
 18 19  2  0
 13 20  1  0
 20 21  2  0
  6 22  2  0
 22  2  1  0
 21  7  1  0
 20 10  1  0
 19 14  1  0
M  END
>  <Compound_ID>  (33) 
CHEMBL2152264

>  <Molecule Name>  (33) 
nan

>  <Molecular Weight>  (33) 
286.34

>  <AlogP>  (33) 
3.87

>  <Smiles>  (33) 
Nc1cccc(-c2cnc3[nH]cc(-c4ccncc4)c3c2)c1

>  <Standard Type>  (33) 
Kd

>  <Standard Relation>  (33) 
'='

>  <Standard Units>  (33) 
nM

>  <Standard Value>  (33) 
16.0

>  <Assay ChEMBL ID>  (33) 
CHEMBL2157031

>  <Assay Description>  (33) 
Binding affinity to TRKA by high throughput assay

>  <BAO Format ID>  (33) 
BAO_0000357

>  <BAO Label>  (33) 
single protein format

>  <Assay Organism>  (33) 
None

>  <Target ChEMBL ID>  (33) 
CHEMBL2815

>  <Target Name>  (33) 
Nerve growth factor receptor Trk-A

>  <Target Organism>  (33) 
Homo sapiens

>  <Target Type>  (33) 
SINGLE PROTEIN

>  <Document ChEMBL ID>  (33) 
CHEMBL2150859

>  <Source Description>  (33) 
Scientific Literature

>  <Document Journal>  (33) 
J Med Chem

>  <Document Year>  (33) 
2012.0

>  <Active>  (33) 
1.0

>  <bits>  (33) 
<rdkit.DataStructs.cDataStructs.ExplicitBitVect object at 0x00000159F5492C70>

>  <Group>  (33) 
G2

$$$$

     RDKit          2D

 23 24  0  0  0  0  0  0  0  0999 V2000
    6.3681  -11.0180    0.0000 C   0  0  0  0  0  0  0  0  0  0  0  0
    5.1546  -10.1364    0.0000 N   0  0  0  0  0  0  0  0  0  0  0  0
    5.3113   -8.6446    0.0000 C   0  0  0  0  0  0  0  0  0  0  0  0
    6.6817   -8.0345    0.0000 O   0  0  0  0  0  0  0  0  0  0  0  0
    4.0978   -7.7629    0.0000 N   0  0  0  0  0  0  0  0  0  0  0  0
    4.2546   -6.2711    0.0000 C   0  0  0  0  0  0  0  0  0  0  0  0
    5.5537   -5.5211    0.0000 S   0  0  0  0  0  0  0  0  0  0  0  0
    5.2418   -4.0539    0.0000 N   0  0  0  0  0  0  0  0  0  0  0  0
    3.7500   -3.8971    0.0000 C   0  0  0  0  0  0  0  0  0  0  0  0
    3.0000   -2.5981    0.0000 S   0  0  0  0  0  0  0  0  0  0  0  0
    3.7500   -1.2990    0.0000 C   0  0  0  0  0  0  0  0  0  0  0  0
    5.2500   -1.2990    0.0000 C   0  0  0  0  0  0  0  0  0  0  0  0
    3.0000   -0.0000    0.0000 C   0  0  0  0  0  0  0  0  0  0  0  0
    1.5000   -0.0000    0.0000 C   0  0  0  0  0  0  0  0  0  0  0  0
    0.7500    1.2990    0.0000 C   0  0  0  0  0  0  0  0  0  0  0  0
    1.5000    2.5981    0.0000 C   0  0  0  0  0  0  0  0  0  0  0  0
    0.7500    3.8971    0.0000 Cl  0  0  0  0  0  0  0  0  0  0  0  0
    3.0000    2.5981    0.0000 C   0  0  0  0  0  0  0  0  0  0  0  0
    3.7500    1.2990    0.0000 C   0  0  0  0  0  0  0  0  0  0  0  0
    3.1399   -5.2674    0.0000 C   0  0  0  0  0  0  0  0  0  0  0  0
    1.6727   -5.5793    0.0000 C   0  0  0  0  0  0  0  0  0  0  0  0
    0.6690   -4.4646    0.0000 N   0  0  0  0  0  0  0  0  0  0  0  0
    1.2091   -7.0059    0.0000 O   0  0  0  0  0  0  0  0  0  0  0  0
  1  2  1  0
  2  3  1  0
  3  4  2  0
  3  5  1  0
  5  6  1  0
  6  7  1  0
  7  8  1  0
  8  9  2  0
  9 10  1  0
 10 11  1  0
 11 12  1  0
 11 13  1  0
 13 14  2  0
 14 15  1  0
 15 16  2  0
 16 17  1  0
 16 18  1  0
 18 19  2  0
  9 20  1  0
 20 21  1  0
 21 22  1  0
 21 23  2  0
 20  6  2  0
 19 13  1  0
M  END
>  <Compound_ID>  (34) 
CHEMBL209466

>  <Molecule Name>  (34) 
nan

>  <Molecular Weight>  (34) 
370.89

>  <AlogP>  (34) 
3.5

>  <Smiles>  (34) 
CNC(=O)Nc1snc(SC(C)c2ccc(Cl)cc2)c1C(N)=O

>  <Standard Type>  (34) 
IC50

>  <Standard Relation>  (34) 
'='

>  <Standard Units>  (34) 
nM

>  <Standard Value>  (34) 
3.0

>  <Assay ChEMBL ID>  (34) 
CHEMBL867240

>  <Assay Description>  (34) 
Inhibition of TrkA kinase

>  <BAO Format ID>  (34) 
BAO_0000357

>  <BAO Label>  (34) 
single protein format

>  <Assay Organism>  (34) 
Homo sapiens

>  <Target ChEMBL ID>  (34) 
CHEMBL2815

>  <Target Name>  (34) 
Nerve growth factor receptor Trk-A

>  <Target Organism>  (34) 
Homo sapiens

>  <Target Type>  (34) 
SINGLE PROTEIN

>  <Document ChEMBL ID>  (34) 
CHEMBL1138090

>  <Source Description>  (34) 
Scientific Literature

>  <Document Journal>  (34) 
Bioorg Med Chem Lett

>  <Document Year>  (34) 
2006.0

>  <Active>  (34) 
1.0

>  <bits>  (34) 
<rdkit.DataStructs.cDataStructs.ExplicitBitVect object at 0x00000159F5492260>

>  <Group>  (34) 
G2

$$$$

     RDKit          2D

 34 39  0  0  0  0  0  0  0  0999 V2000
    3.7548   -2.1855    0.0000 C   0  0  0  0  0  0  0  0  0  0  0  0
    2.6401   -3.1891    0.0000 C   0  0  0  0  0  0  0  0  0  0  0  0
    2.9520   -4.6564    0.0000 O   0  0  0  0  0  0  0  0  0  0  0  0
    4.3786   -5.1199    0.0000 C   0  0  0  0  0  0  0  0  0  0  0  0
    5.4933   -4.1162    0.0000 O   0  0  0  0  0  0  0  0  0  0  0  0
    4.6904   -6.5871    0.0000 N   0  0  0  0  0  0  0  0  0  0  0  0
    6.1170   -7.0506    0.0000 C   0  0  0  0  0  0  0  0  0  0  0  0
    6.4289   -8.5179    0.0000 C   0  0  0  0  0  0  0  0  0  0  0  0
    7.8555   -8.9814    0.0000 C   0  0  0  0  0  0  0  0  0  0  0  0
    8.1673  -10.4486    0.0000 Cl  0  0  0  0  0  0  0  0  0  0  0  0
    1.2135   -2.7256    0.0000 C   0  0  0  0  0  0  0  0  0  0  0  0
    0.7500   -1.2990    0.0000 C   0  0  0  0  0  0  0  0  0  0  0  0
    1.5000    0.0000    0.0000 C   0  0  0  0  0  0  0  0  0  0  0  0
    0.7500    1.2990    0.0000 C   0  0  0  0  0  0  0  0  0  0  0  0
   -0.7500    1.2990    0.0000 C   0  0  0  0  0  0  0  0  0  0  0  0
   -1.5000    0.0000    0.0000 C   0  0  0  0  0  0  0  0  0  0  0  0
   -0.7500   -1.2990    0.0000 C   0  0  0  0  0  0  0  0  0  0  0  0
   -1.2135   -2.7256    0.0000 C   0  0  0  0  0  0  0  0  0  0  0  0
   -2.5838   -3.3357    0.0000 C   0  0  0  0  0  0  0  0  0  0  0  0
   -2.7406   -4.8275    0.0000 C   0  0  0  0  0  0  0  0  0  0  0  0
   -1.5271   -5.7092    0.0000 C   0  0  0  0  0  0  0  0  0  0  0  0
   -0.1568   -5.0991    0.0000 C   0  0  0  0  0  0  0  0  0  0  0  0
    0.8469   -6.2138    0.0000 N   0  0  0  0  0  0  0  0  0  0  0  0
    0.0969   -7.5128    0.0000 C   0  0  0  0  0  0  0  0  0  0  0  0
    0.5604   -8.9394    0.0000 C   0  0  0  0  0  0  0  0  0  0  0  0
   -0.4433  -10.0541    0.0000 C   0  0  0  0  0  0  0  0  0  0  0  0
   -1.9105   -9.7423    0.0000 C   0  0  0  0  0  0  0  0  0  0  0  0
   -2.3740   -8.3157    0.0000 C   0  0  0  0  0  0  0  0  0  0  0  0
   -1.3703   -7.2010    0.0000 C   0  0  0  0  0  0  0  0  0  0  0  0
   -0.0000   -3.6073    0.0000 C   0  0  0  0  0  0  0  0  0  0  0  0
   -4.2079   -5.1394    0.0000 C   0  0  0  0  0  0  0  0  0  0  0  0
   -4.9579   -3.8403    0.0000 N   0  0  0  0  0  0  0  0  0  0  0  0
   -3.9542   -2.7256    0.0000 C   0  0  0  0  0  0  0  0  0  0  0  0
   -4.2660   -1.2584    0.0000 O   0  0  0  0  0  0  0  0  0  0  0  0
  2  1  1  6
  2  3  1  0
  3  4  1  0
  4  5  2  0
  4  6  1  0
  6  7  1  0
  7  8  1  0
  8  9  1  0
  9 10  1  0
  2 11  1  0
 11 12  1  6
 12 13  2  0
 13 14  1  0
 14 15  2  0
 15 16  1  0
 16 17  2  0
 17 18  1  0
 18 19  2  0
 19 20  1  0
 20 21  2  0
 21 22  1  0
 22 23  1  0
 23 24  1  0
 24 25  2  0
 25 26  1  0
 26 27  2  0
 27 28  1  0
 28 29  2  0
 22 30  2  0
 20 31  1  0
 31 32  1  0
 32 33  1  0
 33 34  2  0
 30 11  1  0
 17 12  1  0
 30 18  1  0
 33 19  1  0
 29 21  1  0
 29 24  1  0
M  END
>  <Compound_ID>  (35) 
CHEMBL404561

>  <Molecule Name>  (35) 
nan

>  <Molecular Weight>  (35) 
473.96

>  <AlogP>  (35) 
5.42

>  <Smiles>  (35) 
C[C@H](OC(=O)NCCCCl)[C@H]1c2ccccc2-c2c3c(c4c([nH]c5ccccc54)c21)CNC3=O

>  <Standard Type>  (35) 
IC50

>  <Standard Relation>  (35) 
'='

>  <Standard Units>  (35) 
nM

>  <Standard Value>  (35) 
14.0

>  <Assay ChEMBL ID>  (35) 
CHEMBL934847

>  <Assay Description>  (35) 
Inhibition of human recombinant TrkA

>  <BAO Format ID>  (35) 
BAO_0000357

>  <BAO Label>  (35) 
single protein format

>  <Assay Organism>  (35) 
Homo sapiens

>  <Target ChEMBL ID>  (35) 
CHEMBL2815

>  <Target Name>  (35) 
Nerve growth factor receptor Trk-A

>  <Target Organism>  (35) 
Homo sapiens

>  <Target Type>  (35) 
SINGLE PROTEIN

>  <Document ChEMBL ID>  (35) 
CHEMBL1145586

>  <Source Description>  (35) 
Scientific Literature

>  <Document Journal>  (35) 
Bioorg Med Chem Lett

>  <Document Year>  (35) 
2008.0

>  <Active>  (35) 
1.0

>  <bits>  (35) 
<rdkit.DataStructs.cDataStructs.ExplicitBitVect object at 0x00000159F5493E60>

>  <Group>  (35) 
G2

$$$$

     RDKit          2D

 31 35  0  0  0  0  0  0  0  0999 V2000
   -8.2322   -4.6564    0.0000 C   0  0  0  0  0  0  0  0  0  0  0  0
   -6.8056   -5.1199    0.0000 N   0  0  0  0  0  0  0  0  0  0  0  0
   -6.3421   -6.5465    0.0000 C   0  0  0  0  0  0  0  0  0  0  0  0
   -4.8421   -6.5465    0.0000 C   0  0  0  0  0  0  0  0  0  0  0  0
   -4.3786   -5.1199    0.0000 C   0  0  0  0  0  0  0  0  0  0  0  0
   -2.9520   -4.6564    0.0000 N   0  0  0  0  0  0  0  0  0  0  0  0
   -2.6401   -3.1891    0.0000 C   0  0  0  0  0  0  0  0  0  0  0  0
   -3.7548   -2.1855    0.0000 O   0  0  0  0  0  0  0  0  0  0  0  0
   -1.2135   -2.7256    0.0000 C   0  0  0  0  0  0  0  0  0  0  0  0
   -0.0000   -3.6073    0.0000 C   0  0  0  0  0  0  0  0  0  0  0  0
    1.2135   -2.7256    0.0000 N   0  0  0  0  0  0  0  0  0  0  0  0
    0.7500   -1.2990    0.0000 N   0  0  0  0  0  0  0  0  0  0  0  0
    1.5000    0.0000    0.0000 C   0  0  0  0  0  0  0  0  0  0  0  0
    0.7500    1.2990    0.0000 C   0  0  0  0  0  0  0  0  0  0  0  0
   -0.7500    1.2990    0.0000 C   0  0  0  0  0  0  0  0  0  0  0  0
   -1.5000    2.5981    0.0000 N   0  0  0  0  0  0  0  0  0  0  0  0
   -2.9918    2.7549    0.0000 C   0  0  0  0  0  0  0  0  0  0  0  0
   -3.3037    4.2221    0.0000 C   0  0  0  0  0  0  0  0  0  0  0  0
   -2.0046    4.9721    0.0000 C   0  0  0  0  0  0  0  0  0  0  0  0
   -0.8899    3.9684    0.0000 C   0  0  0  0  0  0  0  0  0  0  0  0
    0.5773    4.2803    0.0000 C   0  0  0  0  0  0  0  0  0  0  0  0
    1.5810    3.1655    0.0000 C   0  0  0  0  0  0  0  0  0  0  0  0
    3.0482    3.4774    0.0000 C   0  0  0  0  0  0  0  0  0  0  0  0
    4.0519    2.3627    0.0000 F   0  0  0  0  0  0  0  0  0  0  0  0
    3.5118    4.9040    0.0000 C   0  0  0  0  0  0  0  0  0  0  0  0
    2.5081    6.0187    0.0000 C   0  0  0  0  0  0  0  0  0  0  0  0
    1.0409    5.7068    0.0000 C   0  0  0  0  0  0  0  0  0  0  0  0
    0.0372    6.8216    0.0000 F   0  0  0  0  0  0  0  0  0  0  0  0
   -1.5000    0.0000    0.0000 N   0  0  0  0  0  0  0  0  0  0  0  0
   -0.7500   -1.2990    0.0000 C   0  0  0  0  0  0  0  0  0  0  0  0
   -5.5921   -4.2382    0.0000 N   0  0  0  0  0  0  0  0  0  0  0  0
  1  2  1  0
  2  3  1  0
  3  4  2  0
  4  5  1  0
  5  6  1  0
  6  7  1  0
  7  8  2  0
  7  9  1  0
  9 10  1  0
 10 11  2  0
 11 12  1  0
 12 13  1  0
 13 14  2  0
 14 15  1  0
 15 16  1  0
 16 17  1  0
 17 18  1  0
 18 19  1  0
 19 20  1  0
 20 21  1  6
 21 22  2  0
 22 23  1  0
 23 24  1  0
 23 25  2  0
 25 26  1  0
 26 27  2  0
 27 28  1  0
 15 29  2  0
 29 30  1  0
  5 31  2  0
 31  2  1  0
 30  9  2  0
 30 12  1  0
 20 16  1  0
 27 21  1  0
M  END
>  <Compound_ID>  (36) 
CHEMBL3671134

>  <Molecule Name>  (36) 
nan

>  <Molecular Weight>  (36) 
423.43

>  <AlogP>  (36) 
3.33

>  <Smiles>  (36) 
Cn1ccc(NC(=O)c2cnn3ccc(N4CCC[C@@H]4c4cc(F)ccc4F)nc23)n1

>  <Standard Type>  (36) 
IC50

>  <Standard Relation>  (36) 
'='

>  <Standard Units>  (36) 
nM

>  <Standard Value>  (36) 
1.55

>  <Assay ChEMBL ID>  (36) 
CHEMBL3887070

>  <Assay Description>  (36) 
ELISA Assay: An enzyme-linked immunosorbant assay (ELISA) was used to assess TrkA kinase activity in the presence of inhibitors. Immulon 4HBX 384-well microtiter plates (Thermo part #8755) were coated with a 0.025 mg/mL solution of poly (Glu, Ala, Tyr; 6:3:1; Sigma P3899). Various concentrations of test compound, 2.5 nM TrkA (Invitrogen Corp., histidine-tagged recombinant human TrkA, cytoplasmic domain), and 500 uM ATP were incubated for 25 minutes at ambient temperature in the coated plates while shaking The assay buffer consisted of 25 mM MOPS pH 7.5, 0.005% (v/v) Triton X-100 and 5 mM MgCl2. The reaction mixture was removed from the plate by washing with PBS containing 0.1% (v/v) Tween 20. The phosphorylated reaction product was detected using 0.2 ug/mL of a phosphotyrosine specific monoclonal antibody (clone PY20) conjugated to horseradish peroxidase in conjunction with the TMB Peroxidase Substrate System (KPL).

>  <BAO Format ID>  (36) 
BAO_0000357

>  <BAO Label>  (36) 
single protein format

>  <Assay Organism>  (36) 
None

>  <Target ChEMBL ID>  (36) 
CHEMBL2815

>  <Target Name>  (36) 
Nerve growth factor receptor Trk-A

>  <Target Organism>  (36) 
Homo sapiens

>  <Target Type>  (36) 
SINGLE PROTEIN

>  <Document ChEMBL ID>  (36) 
CHEMBL3638907

>  <Source Description>  (36) 
BindingDB Database

>  <Document Journal>  (36) 
nan

>  <Document Year>  (36) 
2014.0

>  <Active>  (36) 
1.0

>  <bits>  (36) 
<rdkit.DataStructs.cDataStructs.ExplicitBitVect object at 0x00000159F5493ED0>

>  <Group>  (36) 
G2

$$$$

     RDKit          2D

 30 34  0  0  0  0  0  0  0  0999 V2000
   -3.7548   -2.1855    0.0000 O   0  0  0  0  0  0  0  0  0  0  0  0
   -2.6401   -3.1891    0.0000 C   0  0  0  0  0  0  0  0  0  0  0  0
   -2.9520   -4.6564    0.0000 N   0  0  0  0  0  0  0  0  0  0  0  0
   -4.3786   -5.1199    0.0000 O   0  0  0  0  0  0  0  0  0  0  0  0
   -4.6904   -6.5871    0.0000 C   0  0  0  0  0  0  0  0  0  0  0  0
   -6.1170   -7.0506    0.0000 C   0  0  0  0  0  0  0  0  0  0  0  0
   -7.1207   -8.1654    0.0000 C   0  0  0  0  0  0  0  0  0  0  0  0
   -7.5842   -6.7388    0.0000 C   0  0  0  0  0  0  0  0  0  0  0  0
   -1.2135   -2.7256    0.0000 C   0  0  0  0  0  0  0  0  0  0  0  0
   -0.0000   -3.6073    0.0000 C   0  0  0  0  0  0  0  0  0  0  0  0
    1.2135   -2.7256    0.0000 N   0  0  0  0  0  0  0  0  0  0  0  0
    0.7500   -1.2990    0.0000 N   0  0  0  0  0  0  0  0  0  0  0  0
    1.5000    0.0000    0.0000 C   0  0  0  0  0  0  0  0  0  0  0  0
    0.7500    1.2990    0.0000 C   0  0  0  0  0  0  0  0  0  0  0  0
   -0.7500    1.2990    0.0000 C   0  0  0  0  0  0  0  0  0  0  0  0
   -1.5000    2.5981    0.0000 N   0  0  0  0  0  0  0  0  0  0  0  0
   -2.9918    2.7549    0.0000 C   0  0  0  0  0  0  0  0  0  0  0  0
   -3.3037    4.2221    0.0000 C   0  0  0  0  0  0  0  0  0  0  0  0
   -2.0046    4.9721    0.0000 C   0  0  0  0  0  0  0  0  0  0  0  0
   -0.8899    3.9684    0.0000 C   0  0  0  0  0  0  0  0  0  0  0  0
    0.5773    4.2803    0.0000 C   0  0  0  0  0  0  0  0  0  0  0  0
    1.5810    3.1655    0.0000 C   0  0  0  0  0  0  0  0  0  0  0  0
    3.0482    3.4774    0.0000 C   0  0  0  0  0  0  0  0  0  0  0  0
    4.0519    2.3627    0.0000 F   0  0  0  0  0  0  0  0  0  0  0  0
    3.5118    4.9040    0.0000 C   0  0  0  0  0  0  0  0  0  0  0  0
    2.5081    6.0187    0.0000 C   0  0  0  0  0  0  0  0  0  0  0  0
    1.0409    5.7068    0.0000 C   0  0  0  0  0  0  0  0  0  0  0  0
    0.0372    6.8216    0.0000 F   0  0  0  0  0  0  0  0  0  0  0  0
   -1.5000    0.0000    0.0000 N   0  0  0  0  0  0  0  0  0  0  0  0
   -0.7500   -1.2990    0.0000 C   0  0  0  0  0  0  0  0  0  0  0  0
  1  2  2  0
  2  3  1  0
  3  4  1  0
  4  5  1  0
  5  6  1  0
  6  7  1  0
  7  8  1  0
  2  9  1  0
  9 10  1  0
 10 11  2  0
 11 12  1  0
 12 13  1  0
 13 14  2  0
 14 15  1  0
 15 16  1  0
 16 17  1  0
 17 18  1  0
 18 19  1  0
 19 20  1  0
 20 21  1  6
 21 22  2  0
 22 23  1  0
 23 24  1  0
 23 25  2  0
 25 26  1  0
 26 27  2  0
 27 28  1  0
 15 29  2  0
 29 30  1  0
  8  6  1  0
 30  9  2  0
 30 12  1  0
 20 16  1  0
 27 21  1  0
M  END
>  <Compound_ID>  (37) 
CHEMBL3675942

>  <Molecule Name>  (37) 
nan

>  <Molecular Weight>  (37) 
413.43

>  <AlogP>  (37) 
3.42

>  <Smiles>  (37) 
O=C(NOCC1CC1)c1cnn2ccc(N3CCC[C@@H]3c3cc(F)ccc3F)nc12

>  <Standard Type>  (37) 
IC50

>  <Standard Relation>  (37) 
'='

>  <Standard Units>  (37) 
nM

>  <Standard Value>  (37) 
0.57

>  <Assay ChEMBL ID>  (37) 
CHEMBL3887070

>  <Assay Description>  (37) 
ELISA Assay: An enzyme-linked immunosorbant assay (ELISA) was used to assess TrkA kinase activity in the presence of inhibitors. Immulon 4HBX 384-well microtiter plates (Thermo part #8755) were coated with a 0.025 mg/mL solution of poly (Glu, Ala, Tyr; 6:3:1; Sigma P3899). Various concentrations of test compound, 2.5 nM TrkA (Invitrogen Corp., histidine-tagged recombinant human TrkA, cytoplasmic domain), and 500 uM ATP were incubated for 25 minutes at ambient temperature in the coated plates while shaking The assay buffer consisted of 25 mM MOPS pH 7.5, 0.005% (v/v) Triton X-100 and 5 mM MgCl2. The reaction mixture was removed from the plate by washing with PBS containing 0.1% (v/v) Tween 20. The phosphorylated reaction product was detected using 0.2 ug/mL of a phosphotyrosine specific monoclonal antibody (clone PY20) conjugated to horseradish peroxidase in conjunction with the TMB Peroxidase Substrate System (KPL).

>  <BAO Format ID>  (37) 
BAO_0000357

>  <BAO Label>  (37) 
single protein format

>  <Assay Organism>  (37) 
None

>  <Target ChEMBL ID>  (37) 
CHEMBL2815

>  <Target Name>  (37) 
Nerve growth factor receptor Trk-A

>  <Target Organism>  (37) 
Homo sapiens

>  <Target Type>  (37) 
SINGLE PROTEIN

>  <Document ChEMBL ID>  (37) 
CHEMBL3638907

>  <Source Description>  (37) 
BindingDB Database

>  <Document Journal>  (37) 
nan

>  <Document Year>  (37) 
2014.0

>  <Active>  (37) 
1.0

>  <bits>  (37) 
<rdkit.DataStructs.cDataStructs.ExplicitBitVect object at 0x00000159F5493D80>

>  <Group>  (37) 
G2

$$$$

     RDKit          2D

 35 42  0  0  0  0  0  0  0  0999 V2000
    7.0384   -5.9220    0.0000 C   0  0  0  0  0  0  0  0  0  0  0  0
    6.3474   -4.5907    0.0000 N   0  0  0  0  0  0  0  0  0  0  0  0
    4.8489   -4.5234    0.0000 C   0  0  0  0  0  0  0  0  0  0  0  0
    4.0414   -5.7874    0.0000 C   0  0  0  0  0  0  0  0  0  0  0  0
    2.5382   -5.8249    0.0000 C   0  0  0  0  0  0  0  0  0  0  0  0
    3.2490   -4.5040    0.0000 O   0  0  0  0  0  0  0  0  0  0  0  0
    2.6595   -3.1247    0.0000 C   0  0  0  0  0  0  0  0  0  0  0  0
    3.6464   -1.9951    0.0000 C   0  0  0  0  0  0  0  0  0  0  0  0
    4.1580   -3.1920    0.0000 C   0  0  0  0  0  0  0  0  0  0  0  0
    4.9655   -1.9279    0.0000 O   0  0  0  0  0  0  0  0  0  0  0  0
    6.4640   -1.9952    0.0000 C   0  0  0  0  0  0  0  0  0  0  0  0
    1.2135   -2.7256    0.0000 N   0  0  0  0  0  0  0  0  0  0  0  0
    0.7500   -1.2990    0.0000 C   0  0  0  0  0  0  0  0  0  0  0  0
    1.5000    0.0000    0.0000 C   0  0  0  0  0  0  0  0  0  0  0  0
    0.7500    1.2990    0.0000 C   0  0  0  0  0  0  0  0  0  0  0  0
   -0.7500    1.2990    0.0000 C   0  0  0  0  0  0  0  0  0  0  0  0
   -1.5000    0.0000    0.0000 C   0  0  0  0  0  0  0  0  0  0  0  0
   -0.7500   -1.2990    0.0000 C   0  0  0  0  0  0  0  0  0  0  0  0
   -1.2135   -2.7256    0.0000 C   0  0  0  0  0  0  0  0  0  0  0  0
   -2.5518   -3.5691    0.0000 C   0  0  0  0  0  0  0  0  0  0  0  0
   -2.6191   -5.0676    0.0000 C   0  0  0  0  0  0  0  0  0  0  0  0
   -1.3550   -5.8751    0.0000 C   0  0  0  0  0  0  0  0  0  0  0  0
   -1.0212   -7.3375    0.0000 C   0  0  0  0  0  0  0  0  0  0  0  0
   -1.8846   -8.5641    0.0000 C   0  0  0  0  0  0  0  0  0  0  0  0
   -1.2541   -9.9251    0.0000 C   0  0  0  0  0  0  0  0  0  0  0  0
    0.2399  -10.0596    0.0000 C   0  0  0  0  0  0  0  0  0  0  0  0
    1.1033   -8.8330    0.0000 C   0  0  0  0  0  0  0  0  0  0  0  0
    0.4728   -7.4720    0.0000 C   0  0  0  0  0  0  0  0  0  0  0  0
    1.0623   -6.0927    0.0000 N   0  0  0  0  0  0  0  0  0  0  0  0
   -0.0673   -5.1058    0.0000 C   0  0  0  0  0  0  0  0  0  0  0  0
   -0.0000   -3.6073    0.0000 C   0  0  0  0  0  0  0  0  0  0  0  0
   -4.0650   -5.4667    0.0000 C   0  0  0  0  0  0  0  0  0  0  0  0
   -4.5921   -6.8710    0.0000 O   0  0  0  0  0  0  0  0  0  0  0  0
   -4.8913   -4.2148    0.0000 N   0  0  0  0  0  0  0  0  0  0  0  0
   -3.9561   -3.0421    0.0000 C   0  0  0  0  0  0  0  0  0  0  0  0
  1  2  1  0
  3  2  1  6
  3  4  1  0
  5  4  1  6
  5  6  1  0
  6  7  1  0
  7  8  1  1
  7  9  1  0
  9 10  1  6
 10 11  1  0
  7 12  1  0
 12 13  1  0
 13 14  2  0
 14 15  1  0
 15 16  2  0
 16 17  1  0
 17 18  2  0
 18 19  1  0
 19 20  2  0
 20 21  1  0
 21 22  2  0
 22 23  1  0
 23 24  2  0
 24 25  1  0
 25 26  2  0
 26 27  1  0
 27 28  2  0
 28 29  1  0
 29 30  1  0
 30 31  2  0
 21 32  1  0
 32 33  2  0
 32 34  1  0
 34 35  1  0
  9  3  1  0
 31 12  1  0
 29  5  1  0
 18 13  1  0
 31 19  1  0
 35 20  1  0
 30 22  1  0
 28 23  1  0
M  END
>  <Compound_ID>  (38) 
CHEMBL388978

>  <Molecule Name>  (38) 
STAUROSPORINE

>  <Molecular Weight>  (38) 
466.54

>  <AlogP>  (38) 
4.35

>  <Smiles>  (38) 
CN[C@@H]1C[C@H]2O[C@@](C)([C@@H]1OC)n1c3ccccc3c3c4c(c5c6ccccc6n2c5c31)C(=O)NC4

>  <Standard Type>  (38) 
Kd

>  <Standard Relation>  (38) 
'='

>  <Standard Units>  (38) 
nM

>  <Standard Value>  (38) 
4.0

>  <Assay ChEMBL ID>  (38) 
CHEMBL1061933

>  <Assay Description>  (38) 
Binding constant for TRKA kinase domain

>  <BAO Format ID>  (38) 
BAO_0000357

>  <BAO Label>  (38) 
single protein format

>  <Assay Organism>  (38) 
Homo sapiens

>  <Target ChEMBL ID>  (38) 
CHEMBL2815

>  <Target Name>  (38) 
Nerve growth factor receptor Trk-A

>  <Target Organism>  (38) 
Homo sapiens

>  <Target Type>  (38) 
SINGLE PROTEIN

>  <Document ChEMBL ID>  (38) 
CHEMBL1150977

>  <Source Description>  (38) 
Scientific Literature

>  <Document Journal>  (38) 
Nat Biotechnol

>  <Document Year>  (38) 
2008.0

>  <Active>  (38) 
1.0

>  <bits>  (38) 
<rdkit.DataStructs.cDataStructs.ExplicitBitVect object at 0x00000159F5493D10>

>  <Group>  (38) 
G2

$$$$

     RDKit          2D

 31 34  0  0  0  0  0  0  0  0999 V2000
    3.7500   -1.2990    0.0000 C   0  0  0  0  0  0  0  0  0  0  0  0
    3.0000    0.0000    0.0000 C   0  0  0  0  0  0  0  0  0  0  0  0
    3.7500    1.2990    0.0000 O   0  0  0  0  0  0  0  0  0  0  0  0
    1.5000    0.0000    0.0000 N   0  0  0  0  0  0  0  0  0  0  0  0
    0.7500   -1.2990    0.0000 C   0  0  0  0  0  0  0  0  0  0  0  0
   -0.7500   -1.2990    0.0000 C   0  0  0  0  0  0  0  0  0  0  0  0
   -1.5000    0.0000    0.0000 N   0  0  0  0  0  0  0  0  0  0  0  0
   -3.0000    0.0000    0.0000 C   0  0  0  0  0  0  0  0  0  0  0  0
   -3.7500   -1.2990    0.0000 O   0  0  0  0  0  0  0  0  0  0  0  0
   -3.7500    1.2990    0.0000 C   0  0  0  0  0  0  0  0  0  0  0  0
   -3.0000    2.5981    0.0000 C   0  0  0  0  0  0  0  0  0  0  0  0
   -3.7500    3.8971    0.0000 C   0  0  0  0  0  0  0  0  0  0  0  0
   -3.0000    5.1962    0.0000 S   0  0  0  0  0  0  0  0  0  0  0  0
   -1.5000    5.1962    0.0000 C   0  0  0  0  0  0  0  0  0  0  0  0
   -0.6183    6.4097    0.0000 C   0  0  0  0  0  0  0  0  0  0  0  0
    0.8083    5.9462    0.0000 N   0  0  0  0  0  0  0  0  0  0  0  0
    0.8083    4.4462    0.0000 C   0  0  0  0  0  0  0  0  0  0  0  0
    2.0218    3.5645    0.0000 N   0  0  0  0  0  0  0  0  0  0  0  0
    3.3921    4.1746    0.0000 C   0  0  0  0  0  0  0  0  0  0  0  0
    4.6056    3.2929    0.0000 C   0  0  0  0  0  0  0  0  0  0  0  0
    5.9760    3.9030    0.0000 C   0  0  0  0  0  0  0  0  0  0  0  0
    6.1327    5.3948    0.0000 C   0  0  0  0  0  0  0  0  0  0  0  0
    4.9192    6.2765    0.0000 C   0  0  0  0  0  0  0  0  0  0  0  0
    3.5489    5.6664    0.0000 N   0  0  0  0  0  0  0  0  0  0  0  0
   -0.6183    3.9826    0.0000 S   0  0  0  0  0  0  0  0  0  0  0  0
   -5.2500    3.8971    0.0000 C   0  0  0  0  0  0  0  0  0  0  0  0
   -6.0000    2.5981    0.0000 C   0  0  0  0  0  0  0  0  0  0  0  0
   -5.2500    1.2990    0.0000 C   0  0  0  0  0  0  0  0  0  0  0  0
   -6.0000    0.0000    0.0000 C   0  0  0  0  0  0  0  0  0  0  0  0
   -0.7500    1.2990    0.0000 C   0  0  0  0  0  0  0  0  0  0  0  0
    0.7500    1.2990    0.0000 C   0  0  0  0  0  0  0  0  0  0  0  0
  1  2  1  0
  2  3  2  0
  2  4  1  0
  4  5  1  0
  5  6  1  0
  6  7  1  0
  7  8  1  0
  8  9  2  0
  8 10  1  0
 10 11  2  0
 11 12  1  0
 12 13  1  0
 13 14  1  0
 14 15  2  0
 15 16  1  0
 16 17  2  0
 17 18  1  0
 18 19  1  0
 19 20  2  0
 20 21  1  0
 21 22  2  0
 22 23  1  0
 23 24  2  0
 17 25  1  0
 12 26  2  0
 26 27  1  0
 27 28  2  0
 28 29  1  0
  7 30  1  0
 30 31  1  0
 31  4  1  0
 28 10  1  0
 25 14  1  0
 24 19  1  0
M  END
>  <Compound_ID>  (39) 
CHEMBL253635

>  <Molecule Name>  (39) 
nan

>  <Molecular Weight>  (39) 
453.59

>  <AlogP>  (39) 
4.05

>  <Smiles>  (39) 
CC(=O)N1CCN(C(=O)c2cc(Sc3cnc(Nc4ccccn4)s3)ccc2C)CC1

>  <Standard Type>  (39) 
IC50

>  <Standard Relation>  (39) 
'='

>  <Standard Units>  (39) 
nM

>  <Standard Value>  (39) 
80.0

>  <Assay ChEMBL ID>  (39) 
CHEMBL928869

>  <Assay Description>  (39) 
Inhibition of TrkA

>  <BAO Format ID>  (39) 
BAO_0000357

>  <BAO Label>  (39) 
single protein format

>  <Assay Organism>  (39) 
None

>  <Target ChEMBL ID>  (39) 
CHEMBL2815

>  <Target Name>  (39) 
Nerve growth factor receptor Trk-A

>  <Target Organism>  (39) 
Homo sapiens

>  <Target Type>  (39) 
SINGLE PROTEIN

>  <Document ChEMBL ID>  (39) 
CHEMBL1140800

>  <Source Description>  (39) 
Scientific Literature

>  <Document Journal>  (39) 
Bioorg Med Chem Lett

>  <Document Year>  (39) 
2008.0

>  <Active>  (39) 
1.0

>  <bits>  (39) 
<rdkit.DataStructs.cDataStructs.ExplicitBitVect object at 0x00000159F5493C30>

>  <Group>  (39) 
G2

$$$$

     RDKit          2D

 37 41  0  0  0  0  0  0  0  0999 V2000
  -10.9341    7.7749    0.0000 C   0  0  0  0  0  0  0  0  0  0  0  0
  -11.2460    6.3076    0.0000 O   0  0  0  0  0  0  0  0  0  0  0  0
  -10.1313    5.3039    0.0000 C   0  0  0  0  0  0  0  0  0  0  0  0
   -8.7047    5.7675    0.0000 C   0  0  0  0  0  0  0  0  0  0  0  0
   -7.5900    4.7638    0.0000 C   0  0  0  0  0  0  0  0  0  0  0  0
   -7.9018    3.2966    0.0000 C   0  0  0  0  0  0  0  0  0  0  0  0
   -6.7871    2.2929    0.0000 C   0  0  0  0  0  0  0  0  0  0  0  0
   -7.0990    0.8256    0.0000 O   0  0  0  0  0  0  0  0  0  0  0  0
   -5.9843   -0.1781    0.0000 C   0  0  0  0  0  0  0  0  0  0  0  0
   -6.2961   -1.6453    0.0000 C   0  0  0  0  0  0  0  0  0  0  0  0
   -5.1814   -2.6490    0.0000 C   0  0  0  0  0  0  0  0  0  0  0  0
   -3.7548   -2.1855    0.0000 C   0  0  0  0  0  0  0  0  0  0  0  0
   -2.6401   -3.1891    0.0000 C   0  0  0  0  0  0  0  0  0  0  0  0
   -1.2135   -2.7256    0.0000 N   0  0  0  0  0  0  0  0  0  0  0  0
   -0.0000   -3.6073    0.0000 C   0  0  0  0  0  0  0  0  0  0  0  0
    0.0000   -5.1073    0.0000 N   0  0  0  0  0  0  0  0  0  0  0  0
    1.2135   -2.7256    0.0000 N   0  0  0  0  0  0  0  0  0  0  0  0
    0.7500   -1.2990    0.0000 C   0  0  0  0  0  0  0  0  0  0  0  0
    1.5000    0.0000    0.0000 C   0  0  0  0  0  0  0  0  0  0  0  0
    0.7500    1.2990    0.0000 C   0  0  0  0  0  0  0  0  0  0  0  0
    1.5000    2.5981    0.0000 C   0  0  0  0  0  0  0  0  0  0  0  0
    0.8899    3.9684    0.0000 C   0  0  0  0  0  0  0  0  0  0  0  0
   -0.5773    4.2803    0.0000 C   0  0  0  0  0  0  0  0  0  0  0  0
    2.0046    4.9721    0.0000 N   0  0  0  0  0  0  0  0  0  0  0  0
    3.3037    4.2221    0.0000 N   0  0  0  0  0  0  0  0  0  0  0  0
    4.6740    4.8322    0.0000 C   0  0  0  0  0  0  0  0  0  0  0  0
    2.9918    2.7549    0.0000 C   0  0  0  0  0  0  0  0  0  0  0  0
    3.9955    1.6402    0.0000 C   0  0  0  0  0  0  0  0  0  0  0  0
   -0.7500    1.2990    0.0000 C   0  0  0  0  0  0  0  0  0  0  0  0
   -1.5000    0.0000    0.0000 N   0  0  0  0  0  0  0  0  0  0  0  0
   -0.7500   -1.2990    0.0000 C   0  0  0  0  0  0  0  0  0  0  0  0
   -3.4430   -0.7182    0.0000 C   0  0  0  0  0  0  0  0  0  0  0  0
   -4.5577    0.2855    0.0000 C   0  0  0  0  0  0  0  0  0  0  0  0
   -4.2458    1.7527    0.0000 O   0  0  0  0  0  0  0  0  0  0  0  0
   -5.3605    2.7564    0.0000 C   0  0  0  0  0  0  0  0  0  0  0  0
   -9.3284    2.8330    0.0000 C   0  0  0  0  0  0  0  0  0  0  0  0
  -10.4431    3.8367    0.0000 N   0  0  0  0  0  0  0  0  0  0  0  0
  1  2  1  0
  2  3  1  0
  3  4  2  0
  4  5  1  0
  5  6  2  0
  6  7  1  0
  7  8  1  0
  8  9  1  0
  9 10  2  0
 10 11  1  0
 11 12  2  0
 12 13  1  0
 13 14  1  0
 14 15  1  0
 15 16  1  0
 15 17  2  0
 17 18  1  0
 18 19  2  0
 19 20  1  0
 20 21  1  0
 21 22  1  0
 22 23  1  0
 22 24  2  0
 24 25  1  0
 25 26  1  0
 25 27  1  0
 27 28  1  0
 20 29  2  0
 29 30  1  0
 30 31  2  0
 12 32  1  0
 32 33  2  0
 33 34  1  0
 34 35  1  0
  6 36  1  0
 36 37  2  0
 37  3  1  0
 33  9  1  0
 31 14  1  0
 31 18  1  0
 27 21  2  0
M  END
>  <Compound_ID>  (40) 
CHEMBL3673485

>  <Molecule Name>  (40) 
nan

>  <Molecular Weight>  (40) 
499.58

>  <AlogP>  (40) 
4.07

>  <Smiles>  (40) 
COc1ccc(COc2ccc(Cn3c(N)nc4cc(-c5c(C)nn(C)c5C)cnc43)cc2OC)cn1

>  <Standard Type>  (40) 
IC50

>  <Standard Relation>  (40) 
'='

>  <Standard Units>  (40) 
nM

>  <Standard Value>  (40) 
14.0

>  <Assay ChEMBL ID>  (40) 
CHEMBL3887112

>  <Assay Description>  (40) 
Inhibition Assay: Reagents and consumables were purchased from Sigma Aldrich, Carna Biosciences, or Caliper Life Sciences. All assay reaction conditions for IC50 determinations were within the linear range with respect to time and enzyme concentration. In a 384 well polypropylene plate, TrkA (0.4 nM, Carna 08-186) was pre-incubated in a 100 mM Hepes-NaOH pH 7.5 buffer containing 0.01% Triton X-100, 10 mM MgCl2, 0.1% BSA, 1 mM DTT, 10 uM sodium orthovanadate and 10 uM beta-glycerophosphate and compound with a concentration of 2.5% DMSO for 15 minutes at room temperature. The reaction was initiated with an equal volume of peptide substrate (Caliper Life Sciences catalog no. 760430) and ATP in the aforementioned buffer. The final concentrations in the reaction were 200 pM TrkA, 1.5 uM peptide substrate and 55 uM ATP (ATP Km). The reaction was incubated at room temperature for 180 minutes and terminated with a buffer containing excess EDTA (100 mM Hepes-NaOH pH 7.5, 0.02% Brij.

>  <BAO Format ID>  (40) 
BAO_0000357

>  <BAO Label>  (40) 
single protein format

>  <Assay Organism>  (40) 
None

>  <Target ChEMBL ID>  (40) 
CHEMBL2815

>  <Target Name>  (40) 
Nerve growth factor receptor Trk-A

>  <Target Organism>  (40) 
Homo sapiens

>  <Target Type>  (40) 
SINGLE PROTEIN

>  <Document ChEMBL ID>  (40) 
CHEMBL3638818

>  <Source Description>  (40) 
BindingDB Database

>  <Document Journal>  (40) 
nan

>  <Document Year>  (40) 
2015.0

>  <Active>  (40) 
1.0

>  <bits>  (40) 
<rdkit.DataStructs.cDataStructs.ExplicitBitVect object at 0x00000159F5493B50>

>  <Group>  (40) 
G2

$$$$

     RDKit          2D

 31 34  0  0  0  0  0  0  0  0999 V2000
  -12.8238   -4.5797    0.0000 C   0  0  0  0  0  0  0  0  0  0  0  0
  -12.5120   -6.0469    0.0000 C   0  0  0  0  0  0  0  0  0  0  0  0
  -13.6267   -7.0506    0.0000 C   0  0  0  0  0  0  0  0  0  0  0  0
  -11.0854   -6.5105    0.0000 C   0  0  0  0  0  0  0  0  0  0  0  0
  -10.6218   -7.9371    0.0000 C   0  0  0  0  0  0  0  0  0  0  0  0
   -9.1218   -7.9371    0.0000 S   0  0  0  0  0  0  0  0  0  0  0  0
   -8.6583   -6.5105    0.0000 C   0  0  0  0  0  0  0  0  0  0  0  0
   -7.2317   -6.0469    0.0000 C   0  0  0  0  0  0  0  0  0  0  0  0
   -6.9199   -4.5797    0.0000 O   0  0  0  0  0  0  0  0  0  0  0  0
   -6.1170   -7.0506    0.0000 N   0  0  0  0  0  0  0  0  0  0  0  0
   -4.6904   -6.5871    0.0000 C   0  0  0  0  0  0  0  0  0  0  0  0
   -3.5757   -7.5908    0.0000 C   0  0  0  0  0  0  0  0  0  0  0  0
   -2.1491   -7.1273    0.0000 N   0  0  0  0  0  0  0  0  0  0  0  0
   -1.8373   -5.6601    0.0000 C   0  0  0  0  0  0  0  0  0  0  0  0
   -2.9520   -4.6564    0.0000 C   0  0  0  0  0  0  0  0  0  0  0  0
   -2.6401   -3.1891    0.0000 C   0  0  0  0  0  0  0  0  0  0  0  0
   -3.7548   -2.1855    0.0000 O   0  0  0  0  0  0  0  0  0  0  0  0
   -1.2135   -2.7256    0.0000 C   0  0  0  0  0  0  0  0  0  0  0  0
   -0.0000   -3.6073    0.0000 C   0  0  0  0  0  0  0  0  0  0  0  0
    1.2135   -2.7256    0.0000 N   0  0  0  0  0  0  0  0  0  0  0  0
    2.6401   -3.1891    0.0000 C   0  0  0  0  0  0  0  0  0  0  0  0
    2.9520   -4.6564    0.0000 C   0  0  0  0  0  0  0  0  0  0  0  0
    3.7548   -2.1855    0.0000 C   0  0  0  0  0  0  0  0  0  0  0  0
    0.7500   -1.2990    0.0000 C   0  0  0  0  0  0  0  0  0  0  0  0
    1.5000    0.0000    0.0000 N   0  0  0  0  0  0  0  0  0  0  0  0
    0.7500    1.2990    0.0000 C   0  0  0  0  0  0  0  0  0  0  0  0
   -0.7500    1.2990    0.0000 N   0  0  0  0  0  0  0  0  0  0  0  0
   -1.5000    0.0000    0.0000 C   0  0  0  0  0  0  0  0  0  0  0  0
   -0.7500   -1.2990    0.0000 C   0  0  0  0  0  0  0  0  0  0  0  0
   -4.3786   -5.1199    0.0000 C   0  0  0  0  0  0  0  0  0  0  0  0
   -9.8718   -5.6288    0.0000 N   0  0  0  0  0  0  0  0  0  0  0  0
  1  2  1  0
  2  3  1  0
  2  4  1  0
  4  5  2  0
  5  6  1  0
  6  7  1  0
  7  8  1  0
  8  9  2  0
  8 10  1  0
 10 11  1  0
 11 12  2  0
 12 13  1  0
 13 14  2  0
 14 15  1  0
 15 16  1  0
 16 17  2  0
 16 18  1  0
 18 19  2  0
 19 20  1  0
 20 21  1  0
 21 22  1  0
 21 23  1  0
 20 24  1  0
 24 25  2  0
 25 26  1  0
 26 27  2  0
 27 28  1  0
 28 29  2  0
 15 30  2  0
  7 31  2  0
 31  4  1  0
 30 11  1  0
 29 18  1  0
 29 24  1  0
M  END
>  <Compound_ID>  (41) 
CHEMBL3666420

>  <Molecule Name>  (41) 
nan

>  <Molecular Weight>  (41) 
434.53

>  <AlogP>  (41) 
4.47

>  <Smiles>  (41) 
CC(C)c1csc(C(=O)Nc2cncc(C(=O)c3cn(C(C)C)c4ncncc34)c2)n1

>  <Standard Type>  (41) 
IC50

>  <Standard Relation>  (41) 
'='

>  <Standard Units>  (41) 
nM

>  <Standard Value>  (41) 
31.2

>  <Assay ChEMBL ID>  (41) 
CHEMBL3887033

>  <Assay Description>  (41) 
Enzyme Assay: Isolated TRK Enzyme assays use the HTRF KinEASE-TK kit (Cisbio Cat# 62TK0PEJ) with recombinant His-tagged cytoplasmic domains of each TRK receptor sourced from Invitrogen (see table below). This activity-assay measures the phosphorylation of tyrosine residues within a substrate from the HTRF kit which has been validated by Cisbio for a variety of tyrosine kinases including the TRK receptors. Assay details: Target:TRKA; Invitrogen Cat# PV3144; Amino acids:aa 441-796; FAC enzyme:4nM; FAC ATP:40uM; Assay Reaction Time:35min.

>  <BAO Format ID>  (41) 
BAO_0000357

>  <BAO Label>  (41) 
single protein format

>  <Assay Organism>  (41) 
None

>  <Target ChEMBL ID>  (41) 
CHEMBL2815

>  <Target Name>  (41) 
Nerve growth factor receptor Trk-A

>  <Target Organism>  (41) 
Homo sapiens

>  <Target Type>  (41) 
SINGLE PROTEIN

>  <Document ChEMBL ID>  (41) 
CHEMBL3639348

>  <Source Description>  (41) 
BindingDB Database

>  <Document Journal>  (41) 
nan

>  <Document Year>  (41) 
2014.0

>  <Active>  (41) 
1.0

>  <bits>  (41) 
<rdkit.DataStructs.cDataStructs.ExplicitBitVect object at 0x00000159F5493990>

>  <Group>  (41) 
G2

$$$$

     RDKit          2D

 30 34  0  0  0  0  0  0  0  0999 V2000
   -2.5761   -7.9893    0.0000 C   0  0  0  0  0  0  0  0  0  0  0  0
   -3.3930   -6.7313    0.0000 C   0  0  0  0  0  0  0  0  0  0  0  0
   -4.6510   -7.5483    0.0000 O   0  0  0  0  0  0  0  0  0  0  0  0
   -4.2100   -5.4733    0.0000 C   0  0  0  0  0  0  0  0  0  0  0  0
   -2.9520   -4.6564    0.0000 N   0  0  0  0  0  0  0  0  0  0  0  0
   -2.6401   -3.1891    0.0000 C   0  0  0  0  0  0  0  0  0  0  0  0
   -3.7548   -2.1855    0.0000 O   0  0  0  0  0  0  0  0  0  0  0  0
   -1.2135   -2.7256    0.0000 C   0  0  0  0  0  0  0  0  0  0  0  0
   -0.0000   -3.6073    0.0000 C   0  0  0  0  0  0  0  0  0  0  0  0
    1.2135   -2.7256    0.0000 N   0  0  0  0  0  0  0  0  0  0  0  0
    0.7500   -1.2990    0.0000 N   0  0  0  0  0  0  0  0  0  0  0  0
    1.5000    0.0000    0.0000 C   0  0  0  0  0  0  0  0  0  0  0  0
    0.7500    1.2990    0.0000 C   0  0  0  0  0  0  0  0  0  0  0  0
   -0.7500    1.2990    0.0000 C   0  0  0  0  0  0  0  0  0  0  0  0
   -1.5000    2.5981    0.0000 N   0  0  0  0  0  0  0  0  0  0  0  0
   -2.9918    2.7549    0.0000 C   0  0  0  0  0  0  0  0  0  0  0  0
   -3.3037    4.2221    0.0000 C   0  0  0  0  0  0  0  0  0  0  0  0
   -2.0046    4.9721    0.0000 C   0  0  0  0  0  0  0  0  0  0  0  0
   -0.8899    3.9684    0.0000 C   0  0  0  0  0  0  0  0  0  0  0  0
    0.5773    4.2803    0.0000 C   0  0  0  0  0  0  0  0  0  0  0  0
    1.5810    3.1655    0.0000 C   0  0  0  0  0  0  0  0  0  0  0  0
    3.0482    3.4774    0.0000 C   0  0  0  0  0  0  0  0  0  0  0  0
    4.0519    2.3627    0.0000 F   0  0  0  0  0  0  0  0  0  0  0  0
    3.5118    4.9040    0.0000 C   0  0  0  0  0  0  0  0  0  0  0  0
    2.5081    6.0187    0.0000 C   0  0  0  0  0  0  0  0  0  0  0  0
    1.0409    5.7068    0.0000 C   0  0  0  0  0  0  0  0  0  0  0  0
    0.0372    6.8216    0.0000 F   0  0  0  0  0  0  0  0  0  0  0  0
   -1.5000    0.0000    0.0000 N   0  0  0  0  0  0  0  0  0  0  0  0
   -0.7500   -1.2990    0.0000 C   0  0  0  0  0  0  0  0  0  0  0  0
   -2.1350   -5.9144    0.0000 C   0  0  0  0  0  0  0  0  0  0  0  0
  1  2  1  0
  2  3  1  0
  2  4  1  0
  4  5  1  0
  5  6  1  0
  6  7  2  0
  6  8  1  0
  8  9  1  0
  9 10  2  0
 10 11  1  0
 11 12  1  0
 12 13  2  0
 13 14  1  0
 14 15  1  0
 15 16  1  0
 16 17  1  0
 17 18  1  0
 18 19  1  0
 19 20  1  6
 20 21  2  0
 21 22  1  0
 22 23  1  0
 22 24  2  0
 24 25  1  0
 25 26  2  0
 26 27  1  0
 14 28  2  0
 28 29  1  0
  5 30  1  0
 30  2  1  0
 29  8  2  0
 29 11  1  0
 19 15  1  0
 26 20  1  0
M  END
>  <Compound_ID>  (42) 
CHEMBL3675910

>  <Molecule Name>  (42) 
nan

>  <Molecular Weight>  (42) 
413.43

>  <AlogP>  (42) 
2.56

>  <Smiles>  (42) 
CC1(O)CN(C(=O)c2cnn3ccc(N4CCC[C@@H]4c4cc(F)ccc4F)nc23)C1

>  <Standard Type>  (42) 
IC50

>  <Standard Relation>  (42) 
'='

>  <Standard Units>  (42) 
nM

>  <Standard Value>  (42) 
5.3

>  <Assay ChEMBL ID>  (42) 
CHEMBL3887070

>  <Assay Description>  (42) 
ELISA Assay: An enzyme-linked immunosorbant assay (ELISA) was used to assess TrkA kinase activity in the presence of inhibitors. Immulon 4HBX 384-well microtiter plates (Thermo part #8755) were coated with a 0.025 mg/mL solution of poly (Glu, Ala, Tyr; 6:3:1; Sigma P3899). Various concentrations of test compound, 2.5 nM TrkA (Invitrogen Corp., histidine-tagged recombinant human TrkA, cytoplasmic domain), and 500 uM ATP were incubated for 25 minutes at ambient temperature in the coated plates while shaking The assay buffer consisted of 25 mM MOPS pH 7.5, 0.005% (v/v) Triton X-100 and 5 mM MgCl2. The reaction mixture was removed from the plate by washing with PBS containing 0.1% (v/v) Tween 20. The phosphorylated reaction product was detected using 0.2 ug/mL of a phosphotyrosine specific monoclonal antibody (clone PY20) conjugated to horseradish peroxidase in conjunction with the TMB Peroxidase Substrate System (KPL).

>  <BAO Format ID>  (42) 
BAO_0000357

>  <BAO Label>  (42) 
single protein format

>  <Assay Organism>  (42) 
None

>  <Target ChEMBL ID>  (42) 
CHEMBL2815

>  <Target Name>  (42) 
Nerve growth factor receptor Trk-A

>  <Target Organism>  (42) 
Homo sapiens

>  <Target Type>  (42) 
SINGLE PROTEIN

>  <Document ChEMBL ID>  (42) 
CHEMBL3638907

>  <Source Description>  (42) 
BindingDB Database

>  <Document Journal>  (42) 
nan

>  <Document Year>  (42) 
2014.0

>  <Active>  (42) 
1.0

>  <bits>  (42) 
<rdkit.DataStructs.cDataStructs.ExplicitBitVect object at 0x00000159F5493920>

>  <Group>  (42) 
G2

$$$$

     RDKit          2D

 38 42  0  0  0  0  0  0  0  0999 V2000
   -5.3605    2.7564    0.0000 C   0  0  0  0  0  0  0  0  0  0  0  0
   -4.2458    1.7527    0.0000 O   0  0  0  0  0  0  0  0  0  0  0  0
   -4.5577    0.2855    0.0000 C   0  0  0  0  0  0  0  0  0  0  0  0
   -3.4430   -0.7182    0.0000 C   0  0  0  0  0  0  0  0  0  0  0  0
   -3.7548   -2.1855    0.0000 C   0  0  0  0  0  0  0  0  0  0  0  0
   -2.6401   -3.1891    0.0000 C   0  0  0  0  0  0  0  0  0  0  0  0
   -1.2135   -2.7256    0.0000 N   0  0  0  0  0  0  0  0  0  0  0  0
   -0.0000   -3.6073    0.0000 C   0  0  0  0  0  0  0  0  0  0  0  0
    0.0000   -5.1073    0.0000 N   0  0  0  0  0  0  0  0  0  0  0  0
    1.2135   -2.7256    0.0000 N   0  0  0  0  0  0  0  0  0  0  0  0
    0.7500   -1.2990    0.0000 C   0  0  0  0  0  0  0  0  0  0  0  0
    1.5000    0.0000    0.0000 C   0  0  0  0  0  0  0  0  0  0  0  0
    0.7500    1.2990    0.0000 C   0  0  0  0  0  0  0  0  0  0  0  0
    1.5000    2.5981    0.0000 C   0  0  0  0  0  0  0  0  0  0  0  0
    0.8899    3.9684    0.0000 C   0  0  0  0  0  0  0  0  0  0  0  0
    2.0046    4.9721    0.0000 N   0  0  0  0  0  0  0  0  0  0  0  0
    3.3037    4.2221    0.0000 N   0  0  0  0  0  0  0  0  0  0  0  0
    4.6740    4.8322    0.0000 C   0  0  0  0  0  0  0  0  0  0  0  0
    2.9918    2.7549    0.0000 C   0  0  0  0  0  0  0  0  0  0  0  0
   -0.7500    1.2990    0.0000 C   0  0  0  0  0  0  0  0  0  0  0  0
   -1.5000    0.0000    0.0000 N   0  0  0  0  0  0  0  0  0  0  0  0
   -0.7500   -1.2990    0.0000 C   0  0  0  0  0  0  0  0  0  0  0  0
   -5.1814   -2.6490    0.0000 C   0  0  0  0  0  0  0  0  0  0  0  0
   -6.2961   -1.6453    0.0000 C   0  0  0  0  0  0  0  0  0  0  0  0
   -5.9843   -0.1781    0.0000 C   0  0  0  0  0  0  0  0  0  0  0  0
   -7.0990    0.8256    0.0000 O   0  0  0  0  0  0  0  0  0  0  0  0
   -8.5256    0.3621    0.0000 C   0  0  0  0  0  0  0  0  0  0  0  0
   -9.6403    1.3658    0.0000 C   0  0  0  0  0  0  0  0  0  0  0  0
   -9.3284    2.8330    0.0000 C   0  0  0  0  0  0  0  0  0  0  0  0
  -10.4431    3.8367    0.0000 C   0  0  0  0  0  0  0  0  0  0  0  0
  -11.8697    3.3732    0.0000 C   0  0  0  0  0  0  0  0  0  0  0  0
  -12.9844    4.3769    0.0000 S   0  0  0  0  0  0  0  0  0  0  0  0
  -12.6726    5.8441    0.0000 C   0  0  0  0  0  0  0  0  0  0  0  0
  -14.1398    6.1560    0.0000 F   0  0  0  0  0  0  0  0  0  0  0  0
  -11.2053    5.5322    0.0000 F   0  0  0  0  0  0  0  0  0  0  0  0
  -12.3607    7.3113    0.0000 F   0  0  0  0  0  0  0  0  0  0  0  0
  -12.1816    1.9060    0.0000 C   0  0  0  0  0  0  0  0  0  0  0  0
  -11.0669    0.9023    0.0000 C   0  0  0  0  0  0  0  0  0  0  0  0
  1  2  1  0
  2  3  1  0
  3  4  2  0
  4  5  1  0
  5  6  1  0
  6  7  1  0
  7  8  1  0
  8  9  1  0
  8 10  2  0
 10 11  1  0
 11 12  2  0
 12 13  1  0
 13 14  1  0
 14 15  1  0
 15 16  2  0
 16 17  1  0
 17 18  1  0
 17 19  1  0
 13 20  2  0
 20 21  1  0
 21 22  2  0
  5 23  2  0
 23 24  1  0
 24 25  2  0
 25 26  1  0
 26 27  1  0
 27 28  1  0
 28 29  2  0
 29 30  1  0
 30 31  2  0
 31 32  1  0
 32 33  1  0
 33 34  1  0
 33 35  1  0
 33 36  1  0
 31 37  1  0
 37 38  2  0
 25  3  1  0
 38 28  1  0
 22  7  1  0
 22 11  1  0
 19 14  2  0
M  END
>  <Compound_ID>  (43) 
CHEMBL3678284

>  <Molecule Name>  (43) 
nan

>  <Molecular Weight>  (43) 
540.57

>  <AlogP>  (43) 
5.66

>  <Smiles>  (43) 
COc1cc(Cn2c(N)nc3cc(-c4cnn(C)c4)cnc32)ccc1OCc1ccc(SC(F)(F)F)cc1

>  <Standard Type>  (43) 
IC50

>  <Standard Relation>  (43) 
'='

>  <Standard Units>  (43) 
nM

>  <Standard Value>  (43) 
0.2

>  <Assay ChEMBL ID>  (43) 
CHEMBL3887112

>  <Assay Description>  (43) 
Inhibition Assay: Reagents and consumables were purchased from Sigma Aldrich, Carna Biosciences, or Caliper Life Sciences. All assay reaction conditions for IC50 determinations were within the linear range with respect to time and enzyme concentration. In a 384 well polypropylene plate, TrkA (0.4 nM, Carna 08-186) was pre-incubated in a 100 mM Hepes-NaOH pH 7.5 buffer containing 0.01% Triton X-100, 10 mM MgCl2, 0.1% BSA, 1 mM DTT, 10 uM sodium orthovanadate and 10 uM beta-glycerophosphate and compound with a concentration of 2.5% DMSO for 15 minutes at room temperature. The reaction was initiated with an equal volume of peptide substrate (Caliper Life Sciences catalog no. 760430) and ATP in the aforementioned buffer. The final concentrations in the reaction were 200 pM TrkA, 1.5 uM peptide substrate and 55 uM ATP (ATP Km). The reaction was incubated at room temperature for 180 minutes and terminated with a buffer containing excess EDTA (100 mM Hepes-NaOH pH 7.5, 0.02% Brij.

>  <BAO Format ID>  (43) 
BAO_0000357

>  <BAO Label>  (43) 
single protein format

>  <Assay Organism>  (43) 
None

>  <Target ChEMBL ID>  (43) 
CHEMBL2815

>  <Target Name>  (43) 
Nerve growth factor receptor Trk-A

>  <Target Organism>  (43) 
Homo sapiens

>  <Target Type>  (43) 
SINGLE PROTEIN

>  <Document ChEMBL ID>  (43) 
CHEMBL3638818

>  <Source Description>  (43) 
BindingDB Database

>  <Document Journal>  (43) 
nan

>  <Document Year>  (43) 
2015.0

>  <Active>  (43) 
1.0

>  <bits>  (43) 
<rdkit.DataStructs.cDataStructs.ExplicitBitVect object at 0x00000159F54934C0>

>  <Group>  (43) 
G2

$$$$

     RDKit          2D

 34 38  0  0  0  0  0  0  0  0999 V2000
    3.0000    0.0000    0.0000 C   0  0  0  0  0  0  0  0  0  0  0  0
    1.5000    0.0000    0.0000 C   0  0  0  0  0  0  0  0  0  0  0  0
    0.7500   -1.2990    0.0000 C   0  0  0  0  0  0  0  0  0  0  0  0
   -0.7500   -1.2990    0.0000 C   0  0  0  0  0  0  0  0  0  0  0  0
   -1.5000    0.0000    0.0000 C   0  0  0  0  0  0  0  0  0  0  0  0
   -2.9672    0.3119    0.0000 N   0  0  0  0  0  0  0  0  0  0  0  0
   -3.1240    1.8037    0.0000 C   0  0  0  0  0  0  0  0  0  0  0  0
   -1.7537    2.4138    0.0000 C   0  0  0  0  0  0  0  0  0  0  0  0
   -1.4418    3.8810    0.0000 C   0  0  0  0  0  0  0  0  0  0  0  0
   -2.5565    4.8847    0.0000 C   0  0  0  0  0  0  0  0  0  0  0  0
   -3.9831    4.4211    0.0000 O   0  0  0  0  0  0  0  0  0  0  0  0
   -2.2447    6.3519    0.0000 N   0  0  0  0  0  0  0  0  0  0  0  0
   -3.3594    7.3556    0.0000 C   0  0  0  0  0  0  0  0  0  0  0  0
   -3.0475    8.8228    0.0000 C   0  0  0  0  0  0  0  0  0  0  0  0
   -4.1622    9.8265    0.0000 N   0  0  0  0  0  0  0  0  0  0  0  0
   -5.5888    9.3630    0.0000 C   0  0  0  0  0  0  0  0  0  0  0  0
   -5.9007    7.8958    0.0000 C   0  0  0  0  0  0  0  0  0  0  0  0
   -7.3273    7.4322    0.0000 C   0  0  0  0  0  0  0  0  0  0  0  0
   -7.6391    5.9650    0.0000 O   0  0  0  0  0  0  0  0  0  0  0  0
   -8.4420    8.4359    0.0000 C   0  0  0  0  0  0  0  0  0  0  0  0
   -8.2852    9.9277    0.0000 C   0  0  0  0  0  0  0  0  0  0  0  0
   -9.6555   10.5378    0.0000 N   0  0  0  0  0  0  0  0  0  0  0  0
   -9.9674   12.0050    0.0000 C   0  0  0  0  0  0  0  0  0  0  0  0
   -8.8527   13.0087    0.0000 C   0  0  0  0  0  0  0  0  0  0  0  0
  -11.3940   12.4686    0.0000 C   0  0  0  0  0  0  0  0  0  0  0  0
  -10.6592    9.4231    0.0000 C   0  0  0  0  0  0  0  0  0  0  0  0
  -12.1592    9.4231    0.0000 N   0  0  0  0  0  0  0  0  0  0  0  0
  -12.9092    8.1241    0.0000 C   0  0  0  0  0  0  0  0  0  0  0  0
  -12.1592    6.8250    0.0000 N   0  0  0  0  0  0  0  0  0  0  0  0
  -10.6592    6.8250    0.0000 C   0  0  0  0  0  0  0  0  0  0  0  0
   -9.9092    8.1241    0.0000 C   0  0  0  0  0  0  0  0  0  0  0  0
   -4.7860    6.8921    0.0000 C   0  0  0  0  0  0  0  0  0  0  0  0
   -0.7500    1.2990    0.0000 C   0  0  0  0  0  0  0  0  0  0  0  0
    0.7500    1.2990    0.0000 C   0  0  0  0  0  0  0  0  0  0  0  0
  1  2  1  0
  2  3  2  0
  3  4  1  0
  4  5  2  0
  5  6  1  0
  6  7  1  0
  7  8  2  0
  8  9  1  0
  9 10  1  0
 10 11  2  0
 10 12  1  0
 12 13  1  0
 13 14  2  0
 14 15  1  0
 15 16  2  0
 16 17  1  0
 17 18  1  0
 18 19  2  0
 18 20  1  0
 20 21  2  0
 21 22  1  0
 22 23  1  0
 23 24  1  0
 23 25  1  0
 22 26  1  0
 26 27  2  0
 27 28  1  0
 28 29  2  0
 29 30  1  0
 30 31  2  0
 17 32  2  0
  8 33  1  0
 33 34  2  0
 34  2  1  0
 33  5  1  0
 32 13  1  0
 31 20  1  0
 31 26  1  0
M  END
>  <Compound_ID>  (44) 
CHEMBL3661535

>  <Molecule Name>  (44) 
nan

>  <Molecular Weight>  (44) 
452.52

>  <AlogP>  (44) 
4.61

>  <Smiles>  (44) 
Cc1ccc2[nH]cc(CC(=O)Nc3cncc(C(=O)c4cn(C(C)C)c5ncncc45)c3)c2c1

>  <Standard Type>  (44) 
IC50

>  <Standard Relation>  (44) 
'='

>  <Standard Units>  (44) 
nM

>  <Standard Value>  (44) 
59.5

>  <Assay ChEMBL ID>  (44) 
CHEMBL3887033

>  <Assay Description>  (44) 
Enzyme Assay: Isolated TRK Enzyme assays use the HTRF KinEASE-TK kit (Cisbio Cat# 62TK0PEJ) with recombinant His-tagged cytoplasmic domains of each TRK receptor sourced from Invitrogen (see table below). This activity-assay measures the phosphorylation of tyrosine residues within a substrate from the HTRF kit which has been validated by Cisbio for a variety of tyrosine kinases including the TRK receptors. Assay details: Target:TRKA; Invitrogen Cat# PV3144; Amino acids:aa 441-796; FAC enzyme:4nM; FAC ATP:40uM; Assay Reaction Time:35min.

>  <BAO Format ID>  (44) 
BAO_0000357

>  <BAO Label>  (44) 
single protein format

>  <Assay Organism>  (44) 
None

>  <Target ChEMBL ID>  (44) 
CHEMBL2815

>  <Target Name>  (44) 
Nerve growth factor receptor Trk-A

>  <Target Organism>  (44) 
Homo sapiens

>  <Target Type>  (44) 
SINGLE PROTEIN

>  <Document ChEMBL ID>  (44) 
CHEMBL3639348

>  <Source Description>  (44) 
BindingDB Database

>  <Document Journal>  (44) 
nan

>  <Document Year>  (44) 
2014.0

>  <Active>  (44) 
1.0

>  <bits>  (44) 
<rdkit.DataStructs.cDataStructs.ExplicitBitVect object at 0x00000159F54937D0>

>  <Group>  (44) 
G2

$$$$

     RDKit          2D

 32 35  0  0  0  0  0  0  0  0999 V2000
  -12.8053   -1.0285    0.0000 C   0  0  0  0  0  0  0  0  0  0  0  0
  -13.1172   -2.4957    0.0000 O   0  0  0  0  0  0  0  0  0  0  0  0
  -12.0025   -3.4994    0.0000 C   0  0  0  0  0  0  0  0  0  0  0  0
  -10.5759   -3.0359    0.0000 C   0  0  0  0  0  0  0  0  0  0  0  0
   -9.4612   -4.0396    0.0000 C   0  0  0  0  0  0  0  0  0  0  0  0
   -9.7730   -5.5068    0.0000 C   0  0  0  0  0  0  0  0  0  0  0  0
   -8.6583   -6.5105    0.0000 C   0  0  0  0  0  0  0  0  0  0  0  0
   -7.2317   -6.0469    0.0000 C   0  0  0  0  0  0  0  0  0  0  0  0
   -6.9199   -4.5797    0.0000 O   0  0  0  0  0  0  0  0  0  0  0  0
   -6.1170   -7.0506    0.0000 N   0  0  0  0  0  0  0  0  0  0  0  0
   -4.6904   -6.5871    0.0000 C   0  0  0  0  0  0  0  0  0  0  0  0
   -3.5757   -7.5908    0.0000 C   0  0  0  0  0  0  0  0  0  0  0  0
   -2.1491   -7.1273    0.0000 N   0  0  0  0  0  0  0  0  0  0  0  0
   -1.8373   -5.6601    0.0000 C   0  0  0  0  0  0  0  0  0  0  0  0
   -2.9520   -4.6564    0.0000 C   0  0  0  0  0  0  0  0  0  0  0  0
   -2.6401   -3.1891    0.0000 C   0  0  0  0  0  0  0  0  0  0  0  0
   -3.7548   -2.1855    0.0000 O   0  0  0  0  0  0  0  0  0  0  0  0
   -1.2135   -2.7256    0.0000 C   0  0  0  0  0  0  0  0  0  0  0  0
   -0.0000   -3.6073    0.0000 C   0  0  0  0  0  0  0  0  0  0  0  0
    1.2135   -2.7256    0.0000 N   0  0  0  0  0  0  0  0  0  0  0  0
    2.6401   -3.1891    0.0000 C   0  0  0  0  0  0  0  0  0  0  0  0
    2.9520   -4.6564    0.0000 C   0  0  0  0  0  0  0  0  0  0  0  0
    3.7548   -2.1855    0.0000 C   0  0  0  0  0  0  0  0  0  0  0  0
    0.7500   -1.2990    0.0000 C   0  0  0  0  0  0  0  0  0  0  0  0
    1.5000    0.0000    0.0000 N   0  0  0  0  0  0  0  0  0  0  0  0
    0.7500    1.2990    0.0000 C   0  0  0  0  0  0  0  0  0  0  0  0
   -0.7500    1.2990    0.0000 N   0  0  0  0  0  0  0  0  0  0  0  0
   -1.5000    0.0000    0.0000 C   0  0  0  0  0  0  0  0  0  0  0  0
   -0.7500   -1.2990    0.0000 C   0  0  0  0  0  0  0  0  0  0  0  0
   -4.3786   -5.1199    0.0000 C   0  0  0  0  0  0  0  0  0  0  0  0
  -11.1996   -5.9703    0.0000 C   0  0  0  0  0  0  0  0  0  0  0  0
  -12.3143   -4.9666    0.0000 N   0  0  0  0  0  0  0  0  0  0  0  0
  1  2  1  0
  2  3  1  0
  3  4  2  0
  4  5  1  0
  5  6  2  0
  6  7  1  0
  7  8  1  0
  8  9  2  0
  8 10  1  0
 10 11  1  0
 11 12  2  0
 12 13  1  0
 13 14  2  0
 14 15  1  0
 15 16  1  0
 16 17  2  0
 16 18  1  0
 18 19  2  0
 19 20  1  0
 20 21  1  0
 21 22  1  0
 21 23  1  0
 20 24  1  0
 24 25  2  0
 25 26  1  0
 26 27  2  0
 27 28  1  0
 28 29  2  0
 15 30  2  0
  6 31  1  0
 31 32  2  0
 32  3  1  0
 30 11  1  0
 29 18  1  0
 29 24  1  0
M  END
>  <Compound_ID>  (45) 
CHEMBL3661546

>  <Molecule Name>  (45) 
nan

>  <Molecular Weight>  (45) 
430.47

>  <AlogP>  (45) 
3.22

>  <Smiles>  (45) 
COc1ccc(CC(=O)Nc2cncc(C(=O)c3cn(C(C)C)c4ncncc34)c2)cn1

>  <Standard Type>  (45) 
IC50

>  <Standard Relation>  (45) 
'='

>  <Standard Units>  (45) 
nM

>  <Standard Value>  (45) 
82.5

>  <Assay ChEMBL ID>  (45) 
CHEMBL3887033

>  <Assay Description>  (45) 
Enzyme Assay: Isolated TRK Enzyme assays use the HTRF KinEASE-TK kit (Cisbio Cat# 62TK0PEJ) with recombinant His-tagged cytoplasmic domains of each TRK receptor sourced from Invitrogen (see table below). This activity-assay measures the phosphorylation of tyrosine residues within a substrate from the HTRF kit which has been validated by Cisbio for a variety of tyrosine kinases including the TRK receptors. Assay details: Target:TRKA; Invitrogen Cat# PV3144; Amino acids:aa 441-796; FAC enzyme:4nM; FAC ATP:40uM; Assay Reaction Time:35min.

>  <BAO Format ID>  (45) 
BAO_0000357

>  <BAO Label>  (45) 
single protein format

>  <Assay Organism>  (45) 
None

>  <Target ChEMBL ID>  (45) 
CHEMBL2815

>  <Target Name>  (45) 
Nerve growth factor receptor Trk-A

>  <Target Organism>  (45) 
Homo sapiens

>  <Target Type>  (45) 
SINGLE PROTEIN

>  <Document ChEMBL ID>  (45) 
CHEMBL3639348

>  <Source Description>  (45) 
BindingDB Database

>  <Document Journal>  (45) 
nan

>  <Document Year>  (45) 
2014.0

>  <Active>  (45) 
1.0

>  <bits>  (45) 
<rdkit.DataStructs.cDataStructs.ExplicitBitVect object at 0x00000159F5492650>

>  <Group>  (45) 
G2

$$$$

     RDKit          2D

 37 41  0  0  0  0  0  0  0  0999 V2000
   -7.9882  -15.8540    0.0000 C   0  0  0  0  0  0  0  0  0  0  0  0
   -6.5616  -15.3904    0.0000 O   0  0  0  0  0  0  0  0  0  0  0  0
   -6.2498  -13.9232    0.0000 C   0  0  0  0  0  0  0  0  0  0  0  0
   -7.3645  -12.9195    0.0000 C   0  0  0  0  0  0  0  0  0  0  0  0
   -7.0526  -11.4523    0.0000 C   0  0  0  0  0  0  0  0  0  0  0  0
   -5.6260  -10.9888    0.0000 C   0  0  0  0  0  0  0  0  0  0  0  0
   -5.3142   -9.5216    0.0000 C   0  0  0  0  0  0  0  0  0  0  0  0
   -3.8876   -9.0580    0.0000 O   0  0  0  0  0  0  0  0  0  0  0  0
   -3.5757   -7.5908    0.0000 C   0  0  0  0  0  0  0  0  0  0  0  0
   -2.1491   -7.1273    0.0000 C   0  0  0  0  0  0  0  0  0  0  0  0
   -1.8373   -5.6601    0.0000 C   0  0  0  0  0  0  0  0  0  0  0  0
   -2.9520   -4.6564    0.0000 C   0  0  0  0  0  0  0  0  0  0  0  0
   -2.6401   -3.1891    0.0000 C   0  0  0  0  0  0  0  0  0  0  0  0
   -1.2135   -2.7256    0.0000 N   0  0  0  0  0  0  0  0  0  0  0  0
   -0.0000   -3.6073    0.0000 C   0  0  0  0  0  0  0  0  0  0  0  0
    1.2135   -2.7256    0.0000 N   0  0  0  0  0  0  0  0  0  0  0  0
    0.7500   -1.2990    0.0000 C   0  0  0  0  0  0  0  0  0  0  0  0
    1.5000    0.0000    0.0000 C   0  0  0  0  0  0  0  0  0  0  0  0
    0.7500    1.2990    0.0000 C   0  0  0  0  0  0  0  0  0  0  0  0
    1.5000    2.5981    0.0000 N   0  0  0  0  0  0  0  0  0  0  0  0
    0.8899    3.9684    0.0000 C   0  0  0  0  0  0  0  0  0  0  0  0
    2.0046    4.9721    0.0000 C   0  0  0  0  0  0  0  0  0  0  0  0
    1.8478    6.4639    0.0000 C   0  0  0  0  0  0  0  0  0  0  0  0
    0.3560    6.3071    0.0000 C   0  0  0  0  0  0  0  0  0  0  0  0
    3.3396    6.6207    0.0000 C   0  0  0  0  0  0  0  0  0  0  0  0
    1.6910    7.9557    0.0000 N   0  0  0  0  0  0  0  0  0  0  0  0
    3.3037    4.2221    0.0000 N   0  0  0  0  0  0  0  0  0  0  0  0
    2.9918    2.7549    0.0000 N   0  0  0  0  0  0  0  0  0  0  0  0
   -0.7500    1.2990    0.0000 C   0  0  0  0  0  0  0  0  0  0  0  0
   -1.5000    0.0000    0.0000 N   0  0  0  0  0  0  0  0  0  0  0  0
   -0.7500   -1.2990    0.0000 C   0  0  0  0  0  0  0  0  0  0  0  0
   -4.3786   -5.1199    0.0000 C   0  0  0  0  0  0  0  0  0  0  0  0
   -4.6904   -6.5871    0.0000 C   0  0  0  0  0  0  0  0  0  0  0  0
   -6.1170   -7.0506    0.0000 O   0  0  0  0  0  0  0  0  0  0  0  0
   -7.2317   -6.0469    0.0000 C   0  0  0  0  0  0  0  0  0  0  0  0
   -4.5113  -11.9925    0.0000 C   0  0  0  0  0  0  0  0  0  0  0  0
   -4.8232  -13.4597    0.0000 N   0  0  0  0  0  0  0  0  0  0  0  0
  1  2  1  0
  2  3  1  0
  3  4  2  0
  4  5  1  0
  5  6  2  0
  6  7  1  0
  7  8  1  0
  8  9  1  0
  9 10  2  0
 10 11  1  0
 11 12  2  0
 12 13  1  0
 13 14  1  0
 14 15  1  0
 15 16  2  0
 16 17  1  0
 17 18  2  0
 18 19  1  0
 19 20  1  0
 20 21  1  0
 21 22  2  0
 22 23  1  0
 23 24  1  0
 23 25  1  0
 23 26  1  0
 22 27  1  0
 27 28  2  0
 19 29  2  0
 29 30  1  0
 30 31  2  0
 12 32  1  0
 32 33  2  0
 33 34  1  0
 34 35  1  0
  6 36  1  0
 36 37  2  0
 37  3  1  0
 33  9  1  0
 31 14  1  0
 31 17  1  0
 28 20  1  0
M  END
>  <Compound_ID>  (46) 
CHEMBL3673467

>  <Molecule Name>  (46) 
nan

>  <Molecular Weight>  (46) 
500.56

>  <AlogP>  (46) 
3.25

>  <Smiles>  (46) 
COc1ccc(COc2ccc(Cn3cnc4cc(-n5cc(C(C)(C)N)nn5)cnc43)cc2OC)cn1

>  <Standard Type>  (46) 
IC50

>  <Standard Relation>  (46) 
'='

>  <Standard Units>  (46) 
nM

>  <Standard Value>  (46) 
88.0

>  <Assay ChEMBL ID>  (46) 
CHEMBL3887112

>  <Assay Description>  (46) 
Inhibition Assay: Reagents and consumables were purchased from Sigma Aldrich, Carna Biosciences, or Caliper Life Sciences. All assay reaction conditions for IC50 determinations were within the linear range with respect to time and enzyme concentration. In a 384 well polypropylene plate, TrkA (0.4 nM, Carna 08-186) was pre-incubated in a 100 mM Hepes-NaOH pH 7.5 buffer containing 0.01% Triton X-100, 10 mM MgCl2, 0.1% BSA, 1 mM DTT, 10 uM sodium orthovanadate and 10 uM beta-glycerophosphate and compound with a concentration of 2.5% DMSO for 15 minutes at room temperature. The reaction was initiated with an equal volume of peptide substrate (Caliper Life Sciences catalog no. 760430) and ATP in the aforementioned buffer. The final concentrations in the reaction were 200 pM TrkA, 1.5 uM peptide substrate and 55 uM ATP (ATP Km). The reaction was incubated at room temperature for 180 minutes and terminated with a buffer containing excess EDTA (100 mM Hepes-NaOH pH 7.5, 0.02% Brij.

>  <BAO Format ID>  (46) 
BAO_0000357

>  <BAO Label>  (46) 
single protein format

>  <Assay Organism>  (46) 
None

>  <Target ChEMBL ID>  (46) 
CHEMBL2815

>  <Target Name>  (46) 
Nerve growth factor receptor Trk-A

>  <Target Organism>  (46) 
Homo sapiens

>  <Target Type>  (46) 
SINGLE PROTEIN

>  <Document ChEMBL ID>  (46) 
CHEMBL3638818

>  <Source Description>  (46) 
BindingDB Database

>  <Document Journal>  (46) 
nan

>  <Document Year>  (46) 
2015.0

>  <Active>  (46) 
1.0

>  <bits>  (46) 
<rdkit.DataStructs.cDataStructs.ExplicitBitVect object at 0x00000159F5492490>

>  <Group>  (46) 
G2

$$$$

     RDKit          2D

 36 39  0  0  0  0  0  0  0  0999 V2000
   -5.3142   -9.5216    0.0000 C   0  0  0  0  0  0  0  0  0  0  0  0
   -3.8876   -9.0580    0.0000 O   0  0  0  0  0  0  0  0  0  0  0  0
   -3.5757   -7.5908    0.0000 C   0  0  0  0  0  0  0  0  0  0  0  0
   -4.6904   -6.5871    0.0000 N   0  0  0  0  0  0  0  0  0  0  0  0
   -4.3786   -5.1199    0.0000 C   0  0  0  0  0  0  0  0  0  0  0  0
   -2.9520   -4.6564    0.0000 C   0  0  0  0  0  0  0  0  0  0  0  0
   -2.6401   -3.1891    0.0000 C   0  0  0  0  0  0  0  0  0  0  0  0
   -3.7548   -2.1855    0.0000 O   0  0  0  0  0  0  0  0  0  0  0  0
   -1.2135   -2.7256    0.0000 C   0  0  0  0  0  0  0  0  0  0  0  0
   -0.0000   -3.6073    0.0000 C   0  0  0  0  0  0  0  0  0  0  0  0
    1.2135   -2.7256    0.0000 N   0  0  0  0  0  0  0  0  0  0  0  0
    2.6401   -3.1891    0.0000 C   0  0  0  0  0  0  0  0  0  0  0  0
    2.9520   -4.6564    0.0000 C   0  0  0  0  0  0  0  0  0  0  0  0
    3.7548   -2.1855    0.0000 C   0  0  0  0  0  0  0  0  0  0  0  0
    0.7500   -1.2990    0.0000 C   0  0  0  0  0  0  0  0  0  0  0  0
    1.5000    0.0000    0.0000 C   0  0  0  0  0  0  0  0  0  0  0  0
    0.7500    1.2990    0.0000 C   0  0  0  0  0  0  0  0  0  0  0  0
   -0.7500    1.2990    0.0000 N   0  0  0  0  0  0  0  0  0  0  0  0
   -1.5000    0.0000    0.0000 C   0  0  0  0  0  0  0  0  0  0  0  0
   -0.7500   -1.2990    0.0000 C   0  0  0  0  0  0  0  0  0  0  0  0
   -1.8373   -5.6601    0.0000 C   0  0  0  0  0  0  0  0  0  0  0  0
   -2.1491   -7.1273    0.0000 C   0  0  0  0  0  0  0  0  0  0  0  0
   -1.0344   -8.1310    0.0000 N   0  0  0  0  0  0  0  0  0  0  0  0
    0.3922   -7.6675    0.0000 C   0  0  0  0  0  0  0  0  0  0  0  0
    0.7040   -6.2002    0.0000 O   0  0  0  0  0  0  0  0  0  0  0  0
    1.5069   -8.6712    0.0000 C   0  0  0  0  0  0  0  0  0  0  0  0
    2.9335   -8.2076    0.0000 N   0  0  0  0  0  0  0  0  0  0  0  0
    3.3970   -6.7810    0.0000 N   0  0  0  0  0  0  0  0  0  0  0  0
    4.8970   -6.7810    0.0000 C   0  0  0  0  0  0  0  0  0  0  0  0
    5.7787   -5.5675    0.0000 C   0  0  0  0  0  0  0  0  0  0  0  0
    6.6604   -4.3540    0.0000 F   0  0  0  0  0  0  0  0  0  0  0  0
    6.9922   -6.4492    0.0000 F   0  0  0  0  0  0  0  0  0  0  0  0
    4.5652   -4.6858    0.0000 F   0  0  0  0  0  0  0  0  0  0  0  0
    5.3605   -8.2076    0.0000 C   0  0  0  0  0  0  0  0  0  0  0  0
    4.1470   -9.0893    0.0000 C   0  0  0  0  0  0  0  0  0  0  0  0
    4.1470  -10.5893    0.0000 C   0  0  0  0  0  0  0  0  0  0  0  0
  1  2  1  0
  2  3  1  0
  3  4  2  0
  4  5  1  0
  5  6  2  0
  6  7  1  0
  7  8  2  0
  7  9  1  0
  9 10  2  0
 10 11  1  0
 11 12  1  0
 12 13  1  0
 12 14  1  0
 11 15  1  0
 15 16  2  0
 16 17  1  0
 17 18  2  0
 18 19  1  0
 19 20  2  0
  6 21  1  0
 21 22  2  0
 22 23  1  0
 23 24  1  0
 24 25  2  0
 24 26  1  0
 26 27  1  0
 27 28  1  0
 28 29  2  0
 29 30  1  0
 30 31  1  0
 30 32  1  0
 30 33  1  0
 29 34  1  0
 34 35  2  0
 35 36  1  0
 22  3  1  0
 35 27  1  0
 20  9  1  0
 20 15  1  0
M  END
>  <Compound_ID>  (47) 
CHEMBL3946514

>  <Molecule Name>  (47) 
nan

>  <Molecular Weight>  (47) 
500.48

>  <AlogP>  (47) 
4.41

>  <Smiles>  (47) 
COc1ncc(C(=O)c2cn(C(C)C)c3ccncc23)cc1NC(=O)Cn1nc(C(F)(F)F)cc1C

>  <Standard Type>  (47) 
IC50

>  <Standard Relation>  (47) 
'='

>  <Standard Units>  (47) 
nM

>  <Standard Value>  (47) 
33.8

>  <Assay ChEMBL ID>  (47) 
CHEMBL3887111

>  <Assay Description>  (47) 
HTRF Assay: Isolated TRK Enzyme assays use the HTRF KinEASE-TK kit (Cisbio Cat#62TK0PEJ) with recombinant His-tagged cytoplasmic domains of each TRK receptor sourced from Invitrogen (see table below). This activity-assay measures the phosphorylation of tyrosine residues within a substrate from the HTRF kit which has been validated by Cisbio for a variety of tyrosine kinases including the TRK receptors.Assay Details: Invitrogen Amino FAC FAC Assay ReactionTarget Cat# acids enzyme ATP TimeTRKA PV3144 aa 441-4 nM 40 uM 35 min (NTRK1) 796 TRKB PV3616 aa 526-1 nM 1.4 uM 40 min (NTRK2) 838 TRKC PV3617 aa 510- 10 nM 15 uM 30 min (NTRK3) 8250.5 mM stock solutions of test compounds are prepared and serially diluted in 100% DMSO. A standard curve using the compound of Example 135 disclosed in WO2005/116035 of 150 uM is also prepared on each test plate. High percentage effect (HPE) is defined by 150 uM.

>  <BAO Format ID>  (47) 
BAO_0000357

>  <BAO Label>  (47) 
single protein format

>  <Assay Organism>  (47) 
None

>  <Target ChEMBL ID>  (47) 
CHEMBL2815

>  <Target Name>  (47) 
Nerve growth factor receptor Trk-A

>  <Target Organism>  (47) 
Homo sapiens

>  <Target Type>  (47) 
SINGLE PROTEIN

>  <Document ChEMBL ID>  (47) 
CHEMBL3886170

>  <Source Description>  (47) 
BindingDB Database

>  <Document Journal>  (47) 
nan

>  <Document Year>  (47) 
2015.0

>  <Active>  (47) 
1.0

>  <bits>  (47) 
<rdkit.DataStructs.cDataStructs.ExplicitBitVect object at 0x00000159F54923B0>

>  <Group>  (47) 
G2

$$$$

     RDKit          2D

 36 39  0  0  0  0  0  0  0  0999 V2000
   -2.9520   -4.6564    0.0000 C   0  0  0  0  0  0  0  0  0  0  0  0
   -2.6401   -3.1891    0.0000 C   0  0  0  0  0  0  0  0  0  0  0  0
   -3.7548   -2.1855    0.0000 C   0  0  0  0  0  0  0  0  0  0  0  0
   -1.2135   -2.7256    0.0000 N   0  0  0  0  0  0  0  0  0  0  0  0
   -0.0000   -3.6073    0.0000 C   0  0  0  0  0  0  0  0  0  0  0  0
    1.2135   -2.7256    0.0000 C   0  0  0  0  0  0  0  0  0  0  0  0
    2.6401   -3.1891    0.0000 C   0  0  0  0  0  0  0  0  0  0  0  0
    3.7548   -2.1855    0.0000 O   0  0  0  0  0  0  0  0  0  0  0  0
    2.9520   -4.6564    0.0000 C   0  0  0  0  0  0  0  0  0  0  0  0
    1.8373   -5.6601    0.0000 C   0  0  0  0  0  0  0  0  0  0  0  0
    2.1491   -7.1273    0.0000 N   0  0  0  0  0  0  0  0  0  0  0  0
    3.5757   -7.5908    0.0000 C   0  0  0  0  0  0  0  0  0  0  0  0
    4.6904   -6.5871    0.0000 C   0  0  0  0  0  0  0  0  0  0  0  0
    6.1170   -7.0506    0.0000 N   0  0  0  0  0  0  0  0  0  0  0  0
    6.4289   -8.5179    0.0000 C   0  0  0  0  0  0  0  0  0  0  0  0
    5.3142   -9.5216    0.0000 O   0  0  0  0  0  0  0  0  0  0  0  0
    7.8555   -8.9814    0.0000 C   0  0  0  0  0  0  0  0  0  0  0  0
    8.1673  -10.4486    0.0000 C   0  0  0  0  0  0  0  0  0  0  0  0
    7.0526  -11.4523    0.0000 C   0  0  0  0  0  0  0  0  0  0  0  0
    7.3645  -12.9195    0.0000 C   0  0  0  0  0  0  0  0  0  0  0  0
    8.7911  -13.3831    0.0000 C   0  0  0  0  0  0  0  0  0  0  0  0
    9.1029  -14.8503    0.0000 C   0  0  0  0  0  0  0  0  0  0  0  0
    9.4148  -16.3175    0.0000 N   0  0  0  0  0  0  0  0  0  0  0  0
    9.9058  -12.3794    0.0000 C   0  0  0  0  0  0  0  0  0  0  0  0
   11.3324  -12.8429    0.0000 C   0  0  0  0  0  0  0  0  0  0  0  0
   12.7590  -13.3064    0.0000 F   0  0  0  0  0  0  0  0  0  0  0  0
   11.7959  -11.4163    0.0000 F   0  0  0  0  0  0  0  0  0  0  0  0
   10.8688  -14.2695    0.0000 F   0  0  0  0  0  0  0  0  0  0  0  0
    9.5939  -10.9121    0.0000 C   0  0  0  0  0  0  0  0  0  0  0  0
    4.3786   -5.1199    0.0000 C   0  0  0  0  0  0  0  0  0  0  0  0
    0.7500   -1.2990    0.0000 C   0  0  0  0  0  0  0  0  0  0  0  0
    1.5000    0.0000    0.0000 C   0  0  0  0  0  0  0  0  0  0  0  0
    0.7500    1.2990    0.0000 N   0  0  0  0  0  0  0  0  0  0  0  0
   -0.7500    1.2990    0.0000 C   0  0  0  0  0  0  0  0  0  0  0  0
   -1.5000    0.0000    0.0000 C   0  0  0  0  0  0  0  0  0  0  0  0
   -0.7500   -1.2990    0.0000 C   0  0  0  0  0  0  0  0  0  0  0  0
  1  2  1  0
  2  3  1  0
  2  4  1  0
  4  5  1  0
  5  6  2  0
  6  7  1  0
  7  8  2  0
  7  9  1  0
  9 10  2  0
 10 11  1  0
 11 12  2  0
 12 13  1  0
 13 14  1  0
 14 15  1  0
 15 16  2  0
 15 17  1  0
 17 18  1  0
 18 19  2  0
 19 20  1  0
 20 21  2  0
 21 22  1  0
 22 23  3  0
 21 24  1  0
 24 25  1  0
 25 26  1  0
 25 27  1  0
 25 28  1  0
 24 29  2  0
 13 30  2  0
  6 31  1  0
 31 32  2  0
 32 33  1  0
 33 34  2  0
 34 35  1  0
 35 36  2  0
 36  4  1  0
 30  9  1  0
 36 31  1  0
 29 18  1  0
M  END
>  <Compound_ID>  (48) 
CHEMBL3952238

>  <Molecule Name>  (48) 
nan

>  <Molecular Weight>  (48) 
491.47

>  <AlogP>  (48) 
5.31

>  <Smiles>  (48) 
CC(C)n1cc(C(=O)c2cncc(NC(=O)Cc3ccc(C#N)c(C(F)(F)F)c3)c2)c2cnccc21

>  <Standard Type>  (48) 
IC50

>  <Standard Relation>  (48) 
'='

>  <Standard Units>  (48) 
nM

>  <Standard Value>  (48) 
51.7

>  <Assay ChEMBL ID>  (48) 
CHEMBL3887111

>  <Assay Description>  (48) 
HTRF Assay: Isolated TRK Enzyme assays use the HTRF KinEASE-TK kit (Cisbio Cat#62TK0PEJ) with recombinant His-tagged cytoplasmic domains of each TRK receptor sourced from Invitrogen (see table below). This activity-assay measures the phosphorylation of tyrosine residues within a substrate from the HTRF kit which has been validated by Cisbio for a variety of tyrosine kinases including the TRK receptors.Assay Details: Invitrogen Amino FAC FAC Assay ReactionTarget Cat# acids enzyme ATP TimeTRKA PV3144 aa 441-4 nM 40 uM 35 min (NTRK1) 796 TRKB PV3616 aa 526-1 nM 1.4 uM 40 min (NTRK2) 838 TRKC PV3617 aa 510- 10 nM 15 uM 30 min (NTRK3) 8250.5 mM stock solutions of test compounds are prepared and serially diluted in 100% DMSO. A standard curve using the compound of Example 135 disclosed in WO2005/116035 of 150 uM is also prepared on each test plate. High percentage effect (HPE) is defined by 150 uM.

>  <BAO Format ID>  (48) 
BAO_0000357

>  <BAO Label>  (48) 
single protein format

>  <Assay Organism>  (48) 
None

>  <Target ChEMBL ID>  (48) 
CHEMBL2815

>  <Target Name>  (48) 
Nerve growth factor receptor Trk-A

>  <Target Organism>  (48) 
Homo sapiens

>  <Target Type>  (48) 
SINGLE PROTEIN

>  <Document ChEMBL ID>  (48) 
CHEMBL3886170

>  <Source Description>  (48) 
BindingDB Database

>  <Document Journal>  (48) 
nan

>  <Document Year>  (48) 
2015.0

>  <Active>  (48) 
1.0

>  <bits>  (48) 
<rdkit.DataStructs.cDataStructs.ExplicitBitVect object at 0x00000159F5492340>

>  <Group>  (48) 
G2

$$$$

     RDKit          2D

 34 38  0  0  0  0  0  0  0  0999 V2000
  -14.2319   -1.4920    0.0000 N   0  0  0  0  0  0  0  0  0  0  0  0
  -13.1172   -2.4957    0.0000 C   0  0  0  0  0  0  0  0  0  0  0  0
  -12.0025   -3.4994    0.0000 C   0  0  0  0  0  0  0  0  0  0  0  0
  -10.5759   -3.0359    0.0000 C   0  0  0  0  0  0  0  0  0  0  0  0
   -9.4612   -4.0396    0.0000 C   0  0  0  0  0  0  0  0  0  0  0  0
   -9.7730   -5.5068    0.0000 C   0  0  0  0  0  0  0  0  0  0  0  0
   -8.6583   -6.5105    0.0000 C   0  0  0  0  0  0  0  0  0  0  0  0
   -7.2317   -6.0469    0.0000 C   0  0  0  0  0  0  0  0  0  0  0  0
   -6.9199   -4.5797    0.0000 O   0  0  0  0  0  0  0  0  0  0  0  0
   -6.1170   -7.0506    0.0000 N   0  0  0  0  0  0  0  0  0  0  0  0
   -4.6904   -6.5871    0.0000 C   0  0  0  0  0  0  0  0  0  0  0  0
   -3.5757   -7.5908    0.0000 C   0  0  0  0  0  0  0  0  0  0  0  0
   -2.1491   -7.1273    0.0000 N   0  0  0  0  0  0  0  0  0  0  0  0
   -1.8373   -5.6601    0.0000 C   0  0  0  0  0  0  0  0  0  0  0  0
   -2.9520   -4.6564    0.0000 C   0  0  0  0  0  0  0  0  0  0  0  0
   -2.6401   -3.1891    0.0000 C   0  0  0  0  0  0  0  0  0  0  0  0
   -3.7548   -2.1855    0.0000 O   0  0  0  0  0  0  0  0  0  0  0  0
   -1.2135   -2.7256    0.0000 C   0  0  0  0  0  0  0  0  0  0  0  0
   -0.0000   -3.6073    0.0000 C   0  0  0  0  0  0  0  0  0  0  0  0
    1.2135   -2.7256    0.0000 N   0  0  0  0  0  0  0  0  0  0  0  0
    2.6401   -3.1891    0.0000 C   0  0  0  0  0  0  0  0  0  0  0  0
    3.3443   -1.8647    0.0000 C   0  0  0  0  0  0  0  0  0  0  0  0
    4.8434   -1.8124    0.0000 O   0  0  0  0  0  0  0  0  0  0  0  0
    3.8221   -4.1126    0.0000 C   0  0  0  0  0  0  0  0  0  0  0  0
    2.4314   -4.6746    0.0000 C   0  0  0  0  0  0  0  0  0  0  0  0
    0.7500   -1.2990    0.0000 C   0  0  0  0  0  0  0  0  0  0  0  0
    1.5000    0.0000    0.0000 N   0  0  0  0  0  0  0  0  0  0  0  0
    0.7500    1.2990    0.0000 C   0  0  0  0  0  0  0  0  0  0  0  0
   -0.7500    1.2990    0.0000 N   0  0  0  0  0  0  0  0  0  0  0  0
   -1.5000    0.0000    0.0000 C   0  0  0  0  0  0  0  0  0  0  0  0
   -0.7500   -1.2990    0.0000 C   0  0  0  0  0  0  0  0  0  0  0  0
   -4.3786   -5.1199    0.0000 C   0  0  0  0  0  0  0  0  0  0  0  0
  -11.1996   -5.9703    0.0000 C   0  0  0  0  0  0  0  0  0  0  0  0
  -12.3143   -4.9666    0.0000 C   0  0  0  0  0  0  0  0  0  0  0  0
  1  2  3  0
  2  3  1  0
  3  4  2  0
  4  5  1  0
  5  6  2  0
  6  7  1  0
  7  8  1  0
  8  9  2  0
  8 10  1  0
 10 11  1  0
 11 12  2  0
 12 13  1  0
 13 14  2  0
 14 15  1  0
 15 16  1  0
 16 17  2  0
 16 18  1  0
 18 19  2  0
 19 20  1  0
 20 21  1  0
 21 22  1  0
 22 23  1  0
 21 24  1  0
 24 25  1  0
 20 26  1  0
 26 27  2  0
 27 28  1  0
 28 29  2  0
 29 30  1  0
 30 31  2  0
 15 32  2  0
  6 33  1  0
 33 34  2  0
 34  3  1  0
 32 11  1  0
 31 18  1  0
 25 21  1  0
 31 26  1  0
M  END
>  <Compound_ID>  (49) 
CHEMBL3671400

>  <Molecule Name>  (49) 
nan

>  <Molecular Weight>  (49) 
452.47

>  <AlogP>  (49) 
2.59

>  <Smiles>  (49) 
N#Cc1ccc(CC(=O)Nc2cncc(C(=O)c3cn(C4(CO)CC4)c4ncncc34)c2)cc1

>  <Standard Type>  (49) 
IC50

>  <Standard Relation>  (49) 
'='

>  <Standard Units>  (49) 
nM

>  <Standard Value>  (49) 
43.7

>  <Assay ChEMBL ID>  (49) 
CHEMBL3887033

>  <Assay Description>  (49) 
Enzyme Assay: Isolated TRK Enzyme assays use the HTRF KinEASE-TK kit (Cisbio Cat# 62TK0PEJ) with recombinant His-tagged cytoplasmic domains of each TRK receptor sourced from Invitrogen (see table below). This activity-assay measures the phosphorylation of tyrosine residues within a substrate from the HTRF kit which has been validated by Cisbio for a variety of tyrosine kinases including the TRK receptors. Assay details: Target:TRKA; Invitrogen Cat# PV3144; Amino acids:aa 441-796; FAC enzyme:4nM; FAC ATP:40uM; Assay Reaction Time:35min.

>  <BAO Format ID>  (49) 
BAO_0000357

>  <BAO Label>  (49) 
single protein format

>  <Assay Organism>  (49) 
None

>  <Target ChEMBL ID>  (49) 
CHEMBL2815

>  <Target Name>  (49) 
Nerve growth factor receptor Trk-A

>  <Target Organism>  (49) 
Homo sapiens

>  <Target Type>  (49) 
SINGLE PROTEIN

>  <Document ChEMBL ID>  (49) 
CHEMBL3639348

>  <Source Description>  (49) 
BindingDB Database

>  <Document Journal>  (49) 
nan

>  <Document Year>  (49) 
2014.0

>  <Active>  (49) 
1.0

>  <bits>  (49) 
<rdkit.DataStructs.cDataStructs.ExplicitBitVect object at 0x00000159F54922D0>

>  <Group>  (49) 
G2

$$$$

     RDKit          2D

 33 37  0  0  0  0  0  0  0  0999 V2000
   -2.9520   -4.6564    0.0000 C   0  0  0  0  0  0  0  0  0  0  0  0
   -2.6401   -3.1891    0.0000 C   0  0  0  0  0  0  0  0  0  0  0  0
   -3.7548   -2.1855    0.0000 C   0  0  0  0  0  0  0  0  0  0  0  0
   -1.2135   -2.7256    0.0000 N   0  0  0  0  0  0  0  0  0  0  0  0
   -0.0000   -3.6073    0.0000 C   0  0  0  0  0  0  0  0  0  0  0  0
    1.2135   -2.7256    0.0000 C   0  0  0  0  0  0  0  0  0  0  0  0
    2.6401   -3.1891    0.0000 C   0  0  0  0  0  0  0  0  0  0  0  0
    3.7548   -2.1855    0.0000 O   0  0  0  0  0  0  0  0  0  0  0  0
    2.9520   -4.6564    0.0000 C   0  0  0  0  0  0  0  0  0  0  0  0
    1.8373   -5.6601    0.0000 C   0  0  0  0  0  0  0  0  0  0  0  0
    2.1491   -7.1273    0.0000 N   0  0  0  0  0  0  0  0  0  0  0  0
    3.5757   -7.5908    0.0000 C   0  0  0  0  0  0  0  0  0  0  0  0
    4.6904   -6.5871    0.0000 C   0  0  0  0  0  0  0  0  0  0  0  0
    6.1170   -7.0506    0.0000 N   0  0  0  0  0  0  0  0  0  0  0  0
    6.4289   -8.5179    0.0000 C   0  0  0  0  0  0  0  0  0  0  0  0
    5.3142   -9.5216    0.0000 O   0  0  0  0  0  0  0  0  0  0  0  0
    7.8555   -8.9814    0.0000 C   0  0  0  0  0  0  0  0  0  0  0  0
    8.1673  -10.4486    0.0000 N   0  0  0  0  0  0  0  0  0  0  0  0
    9.5377  -11.0587    0.0000 C   0  0  0  0  0  0  0  0  0  0  0  0
    9.3809  -12.5505    0.0000 C   0  0  0  0  0  0  0  0  0  0  0  0
   10.4956  -13.5542    0.0000 C   0  0  0  0  0  0  0  0  0  0  0  0
   11.9628  -13.8661    0.0000 C   0  0  0  0  0  0  0  0  0  0  0  0
   10.9591  -14.9808    0.0000 C   0  0  0  0  0  0  0  0  0  0  0  0
    7.9136  -12.8624    0.0000 N   0  0  0  0  0  0  0  0  0  0  0  0
    7.1636  -11.5633    0.0000 N   0  0  0  0  0  0  0  0  0  0  0  0
    4.3786   -5.1199    0.0000 C   0  0  0  0  0  0  0  0  0  0  0  0
    0.7500   -1.2990    0.0000 C   0  0  0  0  0  0  0  0  0  0  0  0
    1.5000    0.0000    0.0000 C   0  0  0  0  0  0  0  0  0  0  0  0
    0.7500    1.2990    0.0000 N   0  0  0  0  0  0  0  0  0  0  0  0
   -0.7500    1.2990    0.0000 C   0  0  0  0  0  0  0  0  0  0  0  0
   -1.5000    0.0000    0.0000 C   0  0  0  0  0  0  0  0  0  0  0  0
   -3.0000    0.0000    0.0000 F   0  0  0  0  0  0  0  0  0  0  0  0
   -0.7500   -1.2990    0.0000 C   0  0  0  0  0  0  0  0  0  0  0  0
  1  2  1  0
  2  3  1  0
  2  4  1  0
  4  5  1  0
  5  6  2  0
  6  7  1  0
  7  8  2  0
  7  9  1  0
  9 10  2  0
 10 11  1  0
 11 12  2  0
 12 13  1  0
 13 14  1  0
 14 15  1  0
 15 16  2  0
 15 17  1  0
 17 18  1  0
 18 19  1  0
 19 20  2  0
 20 21  1  0
 21 22  1  0
 22 23  1  0
 20 24  1  0
 24 25  2  0
 13 26  2  0
  6 27  1  0
 27 28  2  0
 28 29  1  0
 29 30  2  0
 30 31  1  0
 31 32  1  0
 31 33  2  0
 33  4  1  0
 26  9  1  0
 33 27  1  0
 25 18  1  0
 23 21  1  0
M  END
>  <Compound_ID>  (50) 
CHEMBL3958626

>  <Molecule Name>  (50) 
nan

>  <Molecular Weight>  (50) 
447.47

>  <AlogP>  (50) 
3.49

>  <Smiles>  (50) 
CC(C)n1cc(C(=O)c2cncc(NC(=O)Cn3cc(C4CC4)nn3)c2)c2cncc(F)c21

>  <Standard Type>  (50) 
IC50

>  <Standard Relation>  (50) 
'='

>  <Standard Units>  (50) 
nM

>  <Standard Value>  (50) 
82.4

>  <Assay ChEMBL ID>  (50) 
CHEMBL3887111

>  <Assay Description>  (50) 
HTRF Assay: Isolated TRK Enzyme assays use the HTRF KinEASE-TK kit (Cisbio Cat#62TK0PEJ) with recombinant His-tagged cytoplasmic domains of each TRK receptor sourced from Invitrogen (see table below). This activity-assay measures the phosphorylation of tyrosine residues within a substrate from the HTRF kit which has been validated by Cisbio for a variety of tyrosine kinases including the TRK receptors.Assay Details: Invitrogen Amino FAC FAC Assay ReactionTarget Cat# acids enzyme ATP TimeTRKA PV3144 aa 441-4 nM 40 uM 35 min (NTRK1) 796 TRKB PV3616 aa 526-1 nM 1.4 uM 40 min (NTRK2) 838 TRKC PV3617 aa 510- 10 nM 15 uM 30 min (NTRK3) 8250.5 mM stock solutions of test compounds are prepared and serially diluted in 100% DMSO. A standard curve using the compound of Example 135 disclosed in WO2005/116035 of 150 uM is also prepared on each test plate. High percentage effect (HPE) is defined by 150 uM.

>  <BAO Format ID>  (50) 
BAO_0000357

>  <BAO Label>  (50) 
single protein format

>  <Assay Organism>  (50) 
None

>  <Target ChEMBL ID>  (50) 
CHEMBL2815

>  <Target Name>  (50) 
Nerve growth factor receptor Trk-A

>  <Target Organism>  (50) 
Homo sapiens

>  <Target Type>  (50) 
SINGLE PROTEIN

>  <Document ChEMBL ID>  (50) 
CHEMBL3886170

>  <Source Description>  (50) 
BindingDB Database

>  <Document Journal>  (50) 
nan

>  <Document Year>  (50) 
2015.0

>  <Active>  (50) 
1.0

>  <bits>  (50) 
<rdkit.DataStructs.cDataStructs.ExplicitBitVect object at 0x00000159F5492110>

>  <Group>  (50) 
G2

$$$$

     RDKit          2D

 42 47  0  0  0  0  0  0  0  0999 V2000
   -3.5736    1.2902    0.0000 C   0  0  0  0  0  0  0  0  0  0  0  0
   -2.1470    1.7537    0.0000 C   0  0  0  0  0  0  0  0  0  0  0  0
   -1.8351    3.2209    0.0000 C   0  0  0  0  0  0  0  0  0  0  0  0
   -0.4086    3.6844    0.0000 C   0  0  0  0  0  0  0  0  0  0  0  0
    0.7062    2.6807    0.0000 C   0  0  0  0  0  0  0  0  0  0  0  0
    0.3943    1.2135    0.0000 C   0  0  0  0  0  0  0  0  0  0  0  0
    1.2760    0.0000    0.0000 N   0  0  0  0  0  0  0  0  0  0  0  0
    0.3943   -1.2135    0.0000 C   0  0  0  0  0  0  0  0  0  0  0  0
    0.8578   -2.6401    0.0000 C   0  0  0  0  0  0  0  0  0  0  0  0
   -0.1459   -3.7548    0.0000 C   0  0  0  0  0  0  0  0  0  0  0  0
   -1.6131   -3.4430    0.0000 N   0  0  0  0  0  0  0  0  0  0  0  0
   -2.6168   -4.5577    0.0000 C   0  0  0  0  0  0  0  0  0  0  0  0
   -4.0840   -4.2458    0.0000 C   0  0  0  0  0  0  0  0  0  0  0  0
   -2.1533   -5.9843    0.0000 C   0  0  0  0  0  0  0  0  0  0  0  0
   -3.1570   -7.0990    0.0000 C   0  0  0  0  0  0  0  0  0  0  0  0
   -4.6242   -6.7871    0.0000 C   0  0  0  0  0  0  0  0  0  0  0  0
   -5.0877   -5.3605    0.0000 F   0  0  0  0  0  0  0  0  0  0  0  0
   -5.6279   -7.9018    0.0000 C   0  0  0  0  0  0  0  0  0  0  0  0
   -7.0951   -7.5900    0.0000 F   0  0  0  0  0  0  0  0  0  0  0  0
   -5.1644   -9.3284    0.0000 C   0  0  0  0  0  0  0  0  0  0  0  0
   -3.6971   -9.6403    0.0000 C   0  0  0  0  0  0  0  0  0  0  0  0
   -3.2336  -11.0669    0.0000 F   0  0  0  0  0  0  0  0  0  0  0  0
   -2.6934   -8.5256    0.0000 C   0  0  0  0  0  0  0  0  0  0  0  0
   -1.2262   -8.8374    0.0000 F   0  0  0  0  0  0  0  0  0  0  0  0
    0.3177   -5.1814    0.0000 C   0  0  0  0  0  0  0  0  0  0  0  0
    1.7849   -5.4933    0.0000 C   0  0  0  0  0  0  0  0  0  0  0  0
    2.7886   -4.3786    0.0000 N   0  0  0  0  0  0  0  0  0  0  0  0
    2.3250   -2.9520    0.0000 C   0  0  0  0  0  0  0  0  0  0  0  0
    3.3287   -1.8373    0.0000 O   0  0  0  0  0  0  0  0  0  0  0  0
   -1.0323   -0.7500    0.0000 N   0  0  0  0  0  0  0  0  0  0  0  0
   -1.0323    0.7500    0.0000 C   0  0  0  0  0  0  0  0  0  0  0  0
   -0.4086    5.1844    0.0000 C   0  0  0  0  0  0  0  0  0  0  0  0
    0.8050    6.0661    0.0000 O   0  0  0  0  0  0  0  0  0  0  0  0
   -1.8351    5.6480    0.0000 N   0  0  0  0  0  0  0  0  0  0  0  0
   -2.2987    7.0746    0.0000 C   0  0  0  0  0  0  0  0  0  0  0  0
   -1.2950    8.1893    0.0000 C   0  0  0  0  0  0  0  0  0  0  0  0
   -1.7585    9.6159    0.0000 C   0  0  0  0  0  0  0  0  0  0  0  0
   -3.2257    9.9277    0.0000 N   0  0  0  0  0  0  0  0  0  0  0  0
   -3.6892   11.3543    0.0000 C   0  0  0  0  0  0  0  0  0  0  0  0
   -4.2294    8.8130    0.0000 C   0  0  0  0  0  0  0  0  0  0  0  0
   -3.7659    7.3864    0.0000 C   0  0  0  0  0  0  0  0  0  0  0  0
   -2.7168    4.4344    0.0000 C   0  0  0  0  0  0  0  0  0  0  0  0
  1  2  1  0
  2  3  2  0
  3  4  1  0
  4  5  2  0
  5  6  1  0
  6  7  1  0
  7  8  1  0
  8  9  1  0
  9 10  2  0
 10 11  1  0
 11 12  1  0
 12 13  1  0
 12 14  1  0
 14 15  1  0
 15 16  2  0
 16 17  1  0
 16 18  1  0
 18 19  1  0
 18 20  2  0
 20 21  1  0
 21 22  1  0
 21 23  2  0
 23 24  1  0
 10 25  1  0
 25 26  2  0
 26 27  1  0
 27 28  1  0
 28 29  2  0
  8 30  2  0
 30 31  1  0
  4 32  1  0
 32 33  2  0
 32 34  1  0
 34 35  1  0
 35 36  1  0
 36 37  1  0
 37 38  1  0
 38 39  1  0
 38 40  1  0
 40 41  1  0
 34 42  1  0
 31  2  1  0
 41 35  1  0
 42  3  1  0
 31  6  2  0
 28  9  1  0
 23 15  1  0
M  END
>  <Compound_ID>  (51) 
CHEMBL3671320

>  <Molecule Name>  (51) 
nan

>  <Molecular Weight>  (51) 
582.6

>  <AlogP>  (51) 
4.88

>  <Smiles>  (51) 
Cc1c2c(cc3[nH]c(-c4c(NC(C)Cc5c(F)c(F)cc(F)c5F)cc[nH]c4=O)nc13)C(=O)N(C1CCN(C)CC1)C2

>  <Standard Type>  (51) 
IC50

>  <Standard Relation>  (51) 
'='

>  <Standard Units>  (51) 
nM

>  <Standard Value>  (51) 
5.992

>  <Assay ChEMBL ID>  (51) 
CHEMBL3887072

>  <Assay Description>  (51) 
In Vitro Kinase Activity Assay: Compounds to be tested were dissolved in 100% DMSO in a range of concentrations from 10-8 to 10-3 M including negative control (DMSO), then diluted with Kinase Buffer (50 mM HEPES, pH 7.5, 1 mM EGTA, 10 mM MgCl2, 0.01% Tween-20, and 2 mM DTT, added fresh) to 4x the final concentration. The final curve included 11 concentrations (10-11 to 10-5 M) plus negative control DMSO tested in triplicate.Kinase and ATP concentrations necessary for optimal activity were determined in separate experiments. (Table 2). Briefly, increasing concentrations of kinase were incubated in a fixed concentration of ATP (200 uM) in Kinase Buffer to determine maximal activity at various time points (30-120 min). The concentration of kinase that resulted in maximal activity with the shortest incubation time was then incubated in Kinase Buffer with increasing concentrations of ATP.

>  <BAO Format ID>  (51) 
BAO_0000357

>  <BAO Label>  (51) 
single protein format

>  <Assay Organism>  (51) 
None

>  <Target ChEMBL ID>  (51) 
CHEMBL2815

>  <Target Name>  (51) 
Nerve growth factor receptor Trk-A

>  <Target Organism>  (51) 
Homo sapiens

>  <Target Type>  (51) 
SINGLE PROTEIN

>  <Document ChEMBL ID>  (51) 
CHEMBL3639188

>  <Source Description>  (51) 
BindingDB Database

>  <Document Journal>  (51) 
nan

>  <Document Year>  (51) 
2014.0

>  <Active>  (51) 
1.0

>  <bits>  (51) 
<rdkit.DataStructs.cDataStructs.ExplicitBitVect object at 0x00000159F5491620>

>  <Group>  (51) 
G2

$$$$

     RDKit          2D

 28 31  0  0  0  0  0  0  0  0999 V2000
   -4.6904   -6.5871    0.0000 C   0  0  0  0  0  0  0  0  0  0  0  0
   -4.3786   -5.1199    0.0000 O   0  0  0  0  0  0  0  0  0  0  0  0
   -2.9520   -4.6564    0.0000 N   0  0  0  0  0  0  0  0  0  0  0  0
   -2.6401   -3.1891    0.0000 C   0  0  0  0  0  0  0  0  0  0  0  0
   -3.7548   -2.1855    0.0000 O   0  0  0  0  0  0  0  0  0  0  0  0
   -1.2135   -2.7256    0.0000 C   0  0  0  0  0  0  0  0  0  0  0  0
   -0.0000   -3.6073    0.0000 C   0  0  0  0  0  0  0  0  0  0  0  0
    1.2135   -2.7256    0.0000 N   0  0  0  0  0  0  0  0  0  0  0  0
    0.7500   -1.2990    0.0000 N   0  0  0  0  0  0  0  0  0  0  0  0
    1.5000    0.0000    0.0000 C   0  0  0  0  0  0  0  0  0  0  0  0
    0.7500    1.2990    0.0000 C   0  0  0  0  0  0  0  0  0  0  0  0
   -0.7500    1.2990    0.0000 C   0  0  0  0  0  0  0  0  0  0  0  0
   -1.5000    2.5981    0.0000 N   0  0  0  0  0  0  0  0  0  0  0  0
   -2.9918    2.7549    0.0000 C   0  0  0  0  0  0  0  0  0  0  0  0
   -3.3037    4.2221    0.0000 C   0  0  0  0  0  0  0  0  0  0  0  0
   -2.0046    4.9721    0.0000 C   0  0  0  0  0  0  0  0  0  0  0  0
   -0.8899    3.9684    0.0000 C   0  0  0  0  0  0  0  0  0  0  0  0
    0.5773    4.2803    0.0000 C   0  0  0  0  0  0  0  0  0  0  0  0
    1.5810    3.1655    0.0000 C   0  0  0  0  0  0  0  0  0  0  0  0
    3.0482    3.4774    0.0000 C   0  0  0  0  0  0  0  0  0  0  0  0
    4.0519    2.3627    0.0000 F   0  0  0  0  0  0  0  0  0  0  0  0
    3.5118    4.9040    0.0000 C   0  0  0  0  0  0  0  0  0  0  0  0
    2.5081    6.0187    0.0000 N   0  0  0  0  0  0  0  0  0  0  0  0
    1.0409    5.7068    0.0000 C   0  0  0  0  0  0  0  0  0  0  0  0
    0.0372    6.8216    0.0000 C   0  0  0  0  0  0  0  0  0  0  0  0
    0.5007    8.2481    0.0000 O   0  0  0  0  0  0  0  0  0  0  0  0
   -1.5000    0.0000    0.0000 N   0  0  0  0  0  0  0  0  0  0  0  0
   -0.7500   -1.2990    0.0000 C   0  0  0  0  0  0  0  0  0  0  0  0
  1  2  1  0
  2  3  1  0
  3  4  1  0
  4  5  2  0
  4  6  1  0
  6  7  1  0
  7  8  2  0
  8  9  1  0
  9 10  1  0
 10 11  2  0
 11 12  1  0
 12 13  1  0
 13 14  1  0
 14 15  1  0
 15 16  1  0
 16 17  1  0
 17 18  1  0
 18 19  2  0
 19 20  1  0
 20 21  1  0
 20 22  2  0
 22 23  1  0
 23 24  2  0
 24 25  1  0
 25 26  1  0
 12 27  2  0
 27 28  1  0
 28  6  2  0
 28  9  1  0
 17 13  1  0
 24 18  1  0
M  END
>  <Compound_ID>  (52) 
CHEMBL3675958

>  <Molecule Name>  (52) 
nan

>  <Molecular Weight>  (52) 
386.39

>  <AlogP>  (52) 
1.39

>  <Smiles>  (52) 
CONC(=O)c1cnn2ccc(N3CCCC3c3cc(F)cnc3CO)nc12

>  <Standard Type>  (52) 
IC50

>  <Standard Relation>  (52) 
'='

>  <Standard Units>  (52) 
nM

>  <Standard Value>  (52) 
1.77

>  <Assay ChEMBL ID>  (52) 
CHEMBL3887070

>  <Assay Description>  (52) 
ELISA Assay: An enzyme-linked immunosorbant assay (ELISA) was used to assess TrkA kinase activity in the presence of inhibitors. Immulon 4HBX 384-well microtiter plates (Thermo part #8755) were coated with a 0.025 mg/mL solution of poly (Glu, Ala, Tyr; 6:3:1; Sigma P3899). Various concentrations of test compound, 2.5 nM TrkA (Invitrogen Corp., histidine-tagged recombinant human TrkA, cytoplasmic domain), and 500 uM ATP were incubated for 25 minutes at ambient temperature in the coated plates while shaking The assay buffer consisted of 25 mM MOPS pH 7.5, 0.005% (v/v) Triton X-100 and 5 mM MgCl2. The reaction mixture was removed from the plate by washing with PBS containing 0.1% (v/v) Tween 20. The phosphorylated reaction product was detected using 0.2 ug/mL of a phosphotyrosine specific monoclonal antibody (clone PY20) conjugated to horseradish peroxidase in conjunction with the TMB Peroxidase Substrate System (KPL).

>  <BAO Format ID>  (52) 
BAO_0000357

>  <BAO Label>  (52) 
single protein format

>  <Assay Organism>  (52) 
None

>  <Target ChEMBL ID>  (52) 
CHEMBL2815

>  <Target Name>  (52) 
Nerve growth factor receptor Trk-A

>  <Target Organism>  (52) 
Homo sapiens

>  <Target Type>  (52) 
SINGLE PROTEIN

>  <Document ChEMBL ID>  (52) 
CHEMBL3638907

>  <Source Description>  (52) 
BindingDB Database

>  <Document Journal>  (52) 
nan

>  <Document Year>  (52) 
2014.0

>  <Active>  (52) 
1.0

>  <bits>  (52) 
<rdkit.DataStructs.cDataStructs.ExplicitBitVect object at 0x00000159F54915B0>

>  <Group>  (52) 
G2

$$$$

     RDKit          2D

 31 34  0  0  0  0  0  0  0  0999 V2000
   -6.1170   -7.0506    0.0000 C   0  0  0  0  0  0  0  0  0  0  0  0
   -4.6904   -6.5871    0.0000 C   0  0  0  0  0  0  0  0  0  0  0  0
   -3.5757   -7.5908    0.0000 C   0  0  0  0  0  0  0  0  0  0  0  0
   -4.3786   -5.1199    0.0000 C   0  0  0  0  0  0  0  0  0  0  0  0
   -5.4933   -4.1162    0.0000 C   0  0  0  0  0  0  0  0  0  0  0  0
   -6.9199   -4.5797    0.0000 O   0  0  0  0  0  0  0  0  0  0  0  0
   -2.9520   -4.6564    0.0000 N   0  0  0  0  0  0  0  0  0  0  0  0
   -2.6401   -3.1891    0.0000 C   0  0  0  0  0  0  0  0  0  0  0  0
   -3.7548   -2.1855    0.0000 O   0  0  0  0  0  0  0  0  0  0  0  0
   -1.2135   -2.7256    0.0000 C   0  0  0  0  0  0  0  0  0  0  0  0
   -0.0000   -3.6073    0.0000 C   0  0  0  0  0  0  0  0  0  0  0  0
    1.2135   -2.7256    0.0000 N   0  0  0  0  0  0  0  0  0  0  0  0
    0.7500   -1.2990    0.0000 N   0  0  0  0  0  0  0  0  0  0  0  0
    1.5000    0.0000    0.0000 C   0  0  0  0  0  0  0  0  0  0  0  0
    0.7500    1.2990    0.0000 C   0  0  0  0  0  0  0  0  0  0  0  0
   -0.7500    1.2990    0.0000 C   0  0  0  0  0  0  0  0  0  0  0  0
   -1.5000    2.5981    0.0000 N   0  0  0  0  0  0  0  0  0  0  0  0
   -2.9918    2.7549    0.0000 C   0  0  0  0  0  0  0  0  0  0  0  0
   -3.3037    4.2221    0.0000 C   0  0  0  0  0  0  0  0  0  0  0  0
   -2.0046    4.9721    0.0000 C   0  0  0  0  0  0  0  0  0  0  0  0
   -0.8899    3.9684    0.0000 C   0  0  0  0  0  0  0  0  0  0  0  0
    0.5773    4.2803    0.0000 C   0  0  0  0  0  0  0  0  0  0  0  0
    1.5810    3.1655    0.0000 C   0  0  0  0  0  0  0  0  0  0  0  0
    3.0482    3.4774    0.0000 C   0  0  0  0  0  0  0  0  0  0  0  0
    4.0519    2.3627    0.0000 F   0  0  0  0  0  0  0  0  0  0  0  0
    3.5118    4.9040    0.0000 C   0  0  0  0  0  0  0  0  0  0  0  0
    2.5081    6.0187    0.0000 C   0  0  0  0  0  0  0  0  0  0  0  0
    1.0409    5.7068    0.0000 C   0  0  0  0  0  0  0  0  0  0  0  0
    0.0372    6.8216    0.0000 F   0  0  0  0  0  0  0  0  0  0  0  0
   -1.5000    0.0000    0.0000 N   0  0  0  0  0  0  0  0  0  0  0  0
   -0.7500   -1.2990    0.0000 C   0  0  0  0  0  0  0  0  0  0  0  0
  1  2  1  0
  2  3  1  0
  2  4  1  0
  4  5  1  1
  5  6  1  0
  4  7  1  0
  7  8  1  0
  8  9  2  0
  8 10  1  0
 10 11  1  0
 11 12  2  0
 12 13  1  0
 13 14  1  0
 14 15  2  0
 15 16  1  0
 16 17  1  0
 17 18  1  0
 18 19  1  0
 19 20  1  0
 20 21  1  0
 21 22  1  0
 22 23  2  0
 23 24  1  0
 24 25  1  0
 24 26  2  0
 26 27  1  0
 27 28  2  0
 28 29  1  0
 16 30  2  0
 30 31  1  0
 31 10  2  0
 31 13  1  0
 21 17  1  0
 28 22  1  0
M  END
>  <Compound_ID>  (53) 
CHEMBL3676047

>  <Molecule Name>  (53) 
nan

>  <Molecular Weight>  (53) 
429.47

>  <AlogP>  (53) 
3.1

>  <Smiles>  (53) 
CC(C)[C@@H](CO)NC(=O)c1cnn2ccc(N3CCCC3c3cc(F)ccc3F)nc12

>  <Standard Type>  (53) 
IC50

>  <Standard Relation>  (53) 
'='

>  <Standard Units>  (53) 
nM

>  <Standard Value>  (53) 
8.5

>  <Assay ChEMBL ID>  (53) 
CHEMBL3887070

>  <Assay Description>  (53) 
ELISA Assay: An enzyme-linked immunosorbant assay (ELISA) was used to assess TrkA kinase activity in the presence of inhibitors. Immulon 4HBX 384-well microtiter plates (Thermo part #8755) were coated with a 0.025 mg/mL solution of poly (Glu, Ala, Tyr; 6:3:1; Sigma P3899). Various concentrations of test compound, 2.5 nM TrkA (Invitrogen Corp., histidine-tagged recombinant human TrkA, cytoplasmic domain), and 500 uM ATP were incubated for 25 minutes at ambient temperature in the coated plates while shaking The assay buffer consisted of 25 mM MOPS pH 7.5, 0.005% (v/v) Triton X-100 and 5 mM MgCl2. The reaction mixture was removed from the plate by washing with PBS containing 0.1% (v/v) Tween 20. The phosphorylated reaction product was detected using 0.2 ug/mL of a phosphotyrosine specific monoclonal antibody (clone PY20) conjugated to horseradish peroxidase in conjunction with the TMB Peroxidase Substrate System (KPL).

>  <BAO Format ID>  (53) 
BAO_0000357

>  <BAO Label>  (53) 
single protein format

>  <Assay Organism>  (53) 
None

>  <Target ChEMBL ID>  (53) 
CHEMBL2815

>  <Target Name>  (53) 
Nerve growth factor receptor Trk-A

>  <Target Organism>  (53) 
Homo sapiens

>  <Target Type>  (53) 
SINGLE PROTEIN

>  <Document ChEMBL ID>  (53) 
CHEMBL3638907

>  <Source Description>  (53) 
BindingDB Database

>  <Document Journal>  (53) 
nan

>  <Document Year>  (53) 
2014.0

>  <Active>  (53) 
1.0

>  <bits>  (53) 
<rdkit.DataStructs.cDataStructs.ExplicitBitVect object at 0x00000159F5491BD0>

>  <Group>  (53) 
G2

$$$$

     RDKit          2D

 28 31  0  0  0  0  0  0  0  0999 V2000
    5.9262   -3.3786    0.0000 C   0  0  0  0  0  0  0  0  0  0  0  0
    5.4627   -1.9520    0.0000 C   0  0  0  0  0  0  0  0  0  0  0  0
    6.4664   -0.8373    0.0000 N   0  0  0  0  0  0  0  0  0  0  0  0
    6.0029    0.5893    0.0000 C   0  0  0  0  0  0  0  0  0  0  0  0
    4.5356    0.9012    0.0000 C   0  0  0  0  0  0  0  0  0  0  0  0
    4.0721    2.3277    0.0000 F   0  0  0  0  0  0  0  0  0  0  0  0
    3.5320   -0.2136    0.0000 C   0  0  0  0  0  0  0  0  0  0  0  0
    3.9955   -1.6402    0.0000 C   0  0  0  0  0  0  0  0  0  0  0  0
    2.9918   -2.7549    0.0000 C   0  0  0  0  0  0  0  0  0  0  0  0
    3.3037   -4.2221    0.0000 C   0  0  0  0  0  0  0  0  0  0  0  0
    2.0046   -4.9721    0.0000 C   0  0  0  0  0  0  0  0  0  0  0  0
    0.8899   -3.9684    0.0000 C   0  0  0  0  0  0  0  0  0  0  0  0
    1.5000   -2.5981    0.0000 N   0  0  0  0  0  0  0  0  0  0  0  0
    0.7500   -1.2990    0.0000 C   0  0  0  0  0  0  0  0  0  0  0  0
    1.5000    0.0000    0.0000 C   0  0  0  0  0  0  0  0  0  0  0  0
    0.7500    1.2990    0.0000 C   0  0  0  0  0  0  0  0  0  0  0  0
   -0.7500    1.2990    0.0000 N   0  0  0  0  0  0  0  0  0  0  0  0
   -1.7537    2.4138    0.0000 N   0  0  0  0  0  0  0  0  0  0  0  0
   -3.1240    1.8037    0.0000 C   0  0  0  0  0  0  0  0  0  0  0  0
   -2.9672    0.3119    0.0000 C   0  0  0  0  0  0  0  0  0  0  0  0
   -4.0819   -0.6918    0.0000 C   0  0  0  0  0  0  0  0  0  0  0  0
   -3.7701   -2.1590    0.0000 O   0  0  0  0  0  0  0  0  0  0  0  0
   -5.5085   -0.2283    0.0000 N   0  0  0  0  0  0  0  0  0  0  0  0
   -6.6232   -1.2320    0.0000 C   0  0  0  0  0  0  0  0  0  0  0  0
   -8.0498   -0.7685    0.0000 C   0  0  0  0  0  0  0  0  0  0  0  0
   -9.1645   -1.7722    0.0000 O   0  0  0  0  0  0  0  0  0  0  0  0
   -1.5000    0.0000    0.0000 C   0  0  0  0  0  0  0  0  0  0  0  0
   -0.7500   -1.2990    0.0000 N   0  0  0  0  0  0  0  0  0  0  0  0
  1  2  1  0
  2  3  2  0
  3  4  1  0
  4  5  2  0
  5  6  1  0
  5  7  1  0
  7  8  2  0
  9  8  1  1
  9 10  1  0
 10 11  1  0
 11 12  1  0
 12 13  1  0
 13 14  1  0
 14 15  1  0
 15 16  2  0
 16 17  1  0
 17 18  1  0
 18 19  2  0
 19 20  1  0
 20 21  1  0
 21 22  2  0
 21 23  1  0
 23 24  1  0
 24 25  1  0
 25 26  1  0
 20 27  2  0
 27 28  1  0
  8  2  1  0
 13  9  1  0
 28 14  2  0
 27 17  1  0
M  END
>  <Compound_ID>  (54) 
CHEMBL3676056

>  <Molecule Name>  (54) 
nan

>  <Molecular Weight>  (54) 
384.42

>  <AlogP>  (54) 
1.64

>  <Smiles>  (54) 
Cc1ncc(F)cc1[C@H]1CCCN1c1ccn2ncc(C(=O)NCCO)c2n1

>  <Standard Type>  (54) 
IC50

>  <Standard Relation>  (54) 
'='

>  <Standard Units>  (54) 
nM

>  <Standard Value>  (54) 
83.0

>  <Assay ChEMBL ID>  (54) 
CHEMBL3887070

>  <Assay Description>  (54) 
ELISA Assay: An enzyme-linked immunosorbant assay (ELISA) was used to assess TrkA kinase activity in the presence of inhibitors. Immulon 4HBX 384-well microtiter plates (Thermo part #8755) were coated with a 0.025 mg/mL solution of poly (Glu, Ala, Tyr; 6:3:1; Sigma P3899). Various concentrations of test compound, 2.5 nM TrkA (Invitrogen Corp., histidine-tagged recombinant human TrkA, cytoplasmic domain), and 500 uM ATP were incubated for 25 minutes at ambient temperature in the coated plates while shaking The assay buffer consisted of 25 mM MOPS pH 7.5, 0.005% (v/v) Triton X-100 and 5 mM MgCl2. The reaction mixture was removed from the plate by washing with PBS containing 0.1% (v/v) Tween 20. The phosphorylated reaction product was detected using 0.2 ug/mL of a phosphotyrosine specific monoclonal antibody (clone PY20) conjugated to horseradish peroxidase in conjunction with the TMB Peroxidase Substrate System (KPL).

>  <BAO Format ID>  (54) 
BAO_0000357

>  <BAO Label>  (54) 
single protein format

>  <Assay Organism>  (54) 
None

>  <Target ChEMBL ID>  (54) 
CHEMBL2815

>  <Target Name>  (54) 
Nerve growth factor receptor Trk-A

>  <Target Organism>  (54) 
Homo sapiens

>  <Target Type>  (54) 
SINGLE PROTEIN

>  <Document ChEMBL ID>  (54) 
CHEMBL3638907

>  <Source Description>  (54) 
BindingDB Database

>  <Document Journal>  (54) 
nan

>  <Document Year>  (54) 
2014.0

>  <Active>  (54) 
1.0

>  <bits>  (54) 
<rdkit.DataStructs.cDataStructs.ExplicitBitVect object at 0x00000159F5493760>

>  <Group>  (54) 
G2

$$$$

     RDKit          2D

 24 26  0  0  0  0  0  0  0  0999 V2000
    5.4627   -4.5501    0.0000 N   0  0  0  0  0  0  0  0  0  0  0  0
    3.9955   -4.2382    0.0000 C   0  0  0  0  0  0  0  0  0  0  0  0
    3.5320   -2.8116    0.0000 O   0  0  0  0  0  0  0  0  0  0  0  0
    2.9918   -5.3529    0.0000 C   0  0  0  0  0  0  0  0  0  0  0  0
    1.5000   -5.1962    0.0000 C   0  0  0  0  0  0  0  0  0  0  0  0
    0.7500   -3.8971    0.0000 S   0  0  0  0  0  0  0  0  0  0  0  0
    1.5000   -2.5981    0.0000 C   0  0  0  0  0  0  0  0  0  0  0  0
    0.7500   -1.2990    0.0000 C   0  0  0  0  0  0  0  0  0  0  0  0
    1.5000    0.0000    0.0000 C   0  0  0  0  0  0  0  0  0  0  0  0
    0.7500    1.2990    0.0000 C   0  0  0  0  0  0  0  0  0  0  0  0
   -0.7500    1.2990    0.0000 C   0  0  0  0  0  0  0  0  0  0  0  0
   -1.5000    2.5981    0.0000 Cl  0  0  0  0  0  0  0  0  0  0  0  0
   -1.5000    0.0000    0.0000 C   0  0  0  0  0  0  0  0  0  0  0  0
   -0.7500   -1.2990    0.0000 C   0  0  0  0  0  0  0  0  0  0  0  0
    0.8899   -6.5665    0.0000 N   0  0  0  0  0  0  0  0  0  0  0  0
    2.0046   -7.5702    0.0000 S   0  0  0  0  0  0  0  0  0  0  0  0
    3.3037   -6.8202    0.0000 C   0  0  0  0  0  0  0  0  0  0  0  0
    4.6740   -7.4303    0.0000 N   0  0  0  0  0  0  0  0  0  0  0  0
    4.8308   -8.9221    0.0000 C   0  0  0  0  0  0  0  0  0  0  0  0
    3.6172   -9.8037    0.0000 C   0  0  0  0  0  0  0  0  0  0  0  0
    3.7740  -11.2955    0.0000 C   0  0  0  0  0  0  0  0  0  0  0  0
    5.1443  -11.9056    0.0000 C   0  0  0  0  0  0  0  0  0  0  0  0
    6.3579  -11.0239    0.0000 N   0  0  0  0  0  0  0  0  0  0  0  0
    6.2011   -9.5322    0.0000 C   0  0  0  0  0  0  0  0  0  0  0  0
  1  2  1  0
  2  3  2  0
  2  4  1  0
  4  5  1  0
  5  6  1  0
  6  7  1  0
  7  8  1  0
  8  9  2  0
  9 10  1  0
 10 11  2  0
 11 12  1  0
 11 13  1  0
 13 14  2  0
  5 15  2  0
 15 16  1  0
 16 17  1  0
 17 18  1  0
 18 19  1  0
 19 20  2  0
 20 21  1  0
 21 22  2  0
 22 23  1  0
 23 24  2  0
 17  4  2  0
 24 19  1  0
 14  8  1  0
M  END
>  <Compound_ID>  (55) 
CHEMBL208881

>  <Molecule Name>  (55) 
nan

>  <Molecular Weight>  (55) 
376.89

>  <AlogP>  (55) 
4.33

>  <Smiles>  (55) 
NC(=O)c1c(SCc2ccc(Cl)cc2)nsc1Nc1cccnc1

>  <Standard Type>  (55) 
IC50

>  <Standard Relation>  (55) 
'='

>  <Standard Units>  (55) 
nM

>  <Standard Value>  (55) 
19.0

>  <Assay ChEMBL ID>  (55) 
CHEMBL867240

>  <Assay Description>  (55) 
Inhibition of TrkA kinase

>  <BAO Format ID>  (55) 
BAO_0000357

>  <BAO Label>  (55) 
single protein format

>  <Assay Organism>  (55) 
Homo sapiens

>  <Target ChEMBL ID>  (55) 
CHEMBL2815

>  <Target Name>  (55) 
Nerve growth factor receptor Trk-A

>  <Target Organism>  (55) 
Homo sapiens

>  <Target Type>  (55) 
SINGLE PROTEIN

>  <Document ChEMBL ID>  (55) 
CHEMBL1138090

>  <Source Description>  (55) 
Scientific Literature

>  <Document Journal>  (55) 
Bioorg Med Chem Lett

>  <Document Year>  (55) 
2006.0

>  <Active>  (55) 
1.0

>  <bits>  (55) 
<rdkit.DataStructs.cDataStructs.ExplicitBitVect object at 0x00000159F54936F0>

>  <Group>  (55) 
G2

$$$$

     RDKit          2D

 37 42  0  0  0  0  0  0  0  0999 V2000
   -7.9882  -15.8540    0.0000 C   0  0  0  0  0  0  0  0  0  0  0  0
   -6.5616  -15.3904    0.0000 O   0  0  0  0  0  0  0  0  0  0  0  0
   -6.2498  -13.9232    0.0000 C   0  0  0  0  0  0  0  0  0  0  0  0
   -7.3645  -12.9195    0.0000 C   0  0  0  0  0  0  0  0  0  0  0  0
   -7.0526  -11.4523    0.0000 C   0  0  0  0  0  0  0  0  0  0  0  0
   -5.6260  -10.9888    0.0000 C   0  0  0  0  0  0  0  0  0  0  0  0
   -5.3142   -9.5216    0.0000 C   0  0  0  0  0  0  0  0  0  0  0  0
   -3.8876   -9.0580    0.0000 O   0  0  0  0  0  0  0  0  0  0  0  0
   -3.5757   -7.5908    0.0000 C   0  0  0  0  0  0  0  0  0  0  0  0
   -2.1491   -7.1273    0.0000 C   0  0  0  0  0  0  0  0  0  0  0  0
   -1.8373   -5.6601    0.0000 C   0  0  0  0  0  0  0  0  0  0  0  0
   -2.9520   -4.6564    0.0000 C   0  0  0  0  0  0  0  0  0  0  0  0
   -2.6401   -3.1891    0.0000 C   0  0  0  0  0  0  0  0  0  0  0  0
   -1.2135   -2.7256    0.0000 N   0  0  0  0  0  0  0  0  0  0  0  0
   -0.0000   -3.6073    0.0000 C   0  0  0  0  0  0  0  0  0  0  0  0
    1.2135   -2.7256    0.0000 N   0  0  0  0  0  0  0  0  0  0  0  0
    0.7500   -1.2990    0.0000 C   0  0  0  0  0  0  0  0  0  0  0  0
    1.5000    0.0000    0.0000 C   0  0  0  0  0  0  0  0  0  0  0  0
    0.7500    1.2990    0.0000 C   0  0  0  0  0  0  0  0  0  0  0  0
    1.5000    2.5981    0.0000 N   0  0  0  0  0  0  0  0  0  0  0  0
    2.9489    2.9863    0.0000 C   0  0  0  0  0  0  0  0  0  0  0  0
    2.5607    4.4352    0.0000 C   0  0  0  0  0  0  0  0  0  0  0  0
    4.0607    4.4352    0.0000 C   0  0  0  0  0  0  0  0  0  0  0  0
    4.8107    5.7342    0.0000 C   0  0  0  0  0  0  0  0  0  0  0  0
    4.0607    7.0333    0.0000 N   0  0  0  0  0  0  0  0  0  0  0  0
    2.5607    7.0333    0.0000 C   0  0  0  0  0  0  0  0  0  0  0  0
    1.8107    5.7342    0.0000 C   0  0  0  0  0  0  0  0  0  0  0  0
    1.1118    4.0470    0.0000 C   0  0  0  0  0  0  0  0  0  0  0  0
   -0.7500    1.2990    0.0000 C   0  0  0  0  0  0  0  0  0  0  0  0
   -1.5000    0.0000    0.0000 N   0  0  0  0  0  0  0  0  0  0  0  0
   -0.7500   -1.2990    0.0000 C   0  0  0  0  0  0  0  0  0  0  0  0
   -4.3786   -5.1199    0.0000 C   0  0  0  0  0  0  0  0  0  0  0  0
   -4.6904   -6.5871    0.0000 C   0  0  0  0  0  0  0  0  0  0  0  0
   -6.1170   -7.0506    0.0000 O   0  0  0  0  0  0  0  0  0  0  0  0
   -7.2317   -6.0469    0.0000 C   0  0  0  0  0  0  0  0  0  0  0  0
   -4.5113  -11.9925    0.0000 C   0  0  0  0  0  0  0  0  0  0  0  0
   -4.8232  -13.4597    0.0000 N   0  0  0  0  0  0  0  0  0  0  0  0
  1  2  1  0
  2  3  1  0
  3  4  2  0
  4  5  1  0
  5  6  2  0
  6  7  1  0
  7  8  1  0
  8  9  1  0
  9 10  2  0
 10 11  1  0
 11 12  2  0
 12 13  1  0
 13 14  1  0
 14 15  1  0
 15 16  2  0
 16 17  1  0
 17 18  2  0
 18 19  1  0
 19 20  1  0
 20 21  1  0
 21 22  1  0
 22 23  1  0
 23 24  1  0
 24 25  1  0
 25 26  1  0
 26 27  1  0
 22 28  1  0
 19 29  2  0
 29 30  1  0
 30 31  2  0
 12 32  1  0
 32 33  2  0
 33 34  1  0
 34 35  1  0
  6 36  1  0
 36 37  2  0
 37  3  1  0
 33  9  1  0
 31 14  1  0
 31 17  1  0
 28 20  1  0
 27 22  1  0
M  END
>  <Compound_ID>  (56) 
CHEMBL3673459

>  <Molecule Name>  (56) 
nan

>  <Molecular Weight>  (56) 
500.6

>  <AlogP>  (56) 
3.66

>  <Smiles>  (56) 
COc1ccc(COc2ccc(Cn3cnc4cc(N5CC6(CCNCC6)C5)cnc43)cc2OC)cn1

>  <Standard Type>  (56) 
IC50

>  <Standard Relation>  (56) 
'='

>  <Standard Units>  (56) 
nM

>  <Standard Value>  (56) 
25.0

>  <Assay ChEMBL ID>  (56) 
CHEMBL3887112

>  <Assay Description>  (56) 
Inhibition Assay: Reagents and consumables were purchased from Sigma Aldrich, Carna Biosciences, or Caliper Life Sciences. All assay reaction conditions for IC50 determinations were within the linear range with respect to time and enzyme concentration. In a 384 well polypropylene plate, TrkA (0.4 nM, Carna 08-186) was pre-incubated in a 100 mM Hepes-NaOH pH 7.5 buffer containing 0.01% Triton X-100, 10 mM MgCl2, 0.1% BSA, 1 mM DTT, 10 uM sodium orthovanadate and 10 uM beta-glycerophosphate and compound with a concentration of 2.5% DMSO for 15 minutes at room temperature. The reaction was initiated with an equal volume of peptide substrate (Caliper Life Sciences catalog no. 760430) and ATP in the aforementioned buffer. The final concentrations in the reaction were 200 pM TrkA, 1.5 uM peptide substrate and 55 uM ATP (ATP Km). The reaction was incubated at room temperature for 180 minutes and terminated with a buffer containing excess EDTA (100 mM Hepes-NaOH pH 7.5, 0.02% Brij.

>  <BAO Format ID>  (56) 
BAO_0000357

>  <BAO Label>  (56) 
single protein format

>  <Assay Organism>  (56) 
None

>  <Target ChEMBL ID>  (56) 
CHEMBL2815

>  <Target Name>  (56) 
Nerve growth factor receptor Trk-A

>  <Target Organism>  (56) 
Homo sapiens

>  <Target Type>  (56) 
SINGLE PROTEIN

>  <Document ChEMBL ID>  (56) 
CHEMBL3638818

>  <Source Description>  (56) 
BindingDB Database

>  <Document Journal>  (56) 
nan

>  <Document Year>  (56) 
2015.0

>  <Active>  (56) 
1.0

>  <bits>  (56) 
<rdkit.DataStructs.cDataStructs.ExplicitBitVect object at 0x00000159F5493BC0>

>  <Group>  (56) 
G2

$$$$

     RDKit          2D

 34 37  0  0  0  0  0  0  0  0999 V2000
   -2.1766   -4.6157    0.0000 C   0  0  0  0  0  0  0  0  0  0  0  0
   -2.6401   -3.1891    0.0000 C   0  0  0  0  0  0  0  0  0  0  0  0
   -3.1036   -1.7626    0.0000 C   0  0  0  0  0  0  0  0  0  0  0  0
   -4.5709   -1.4507    0.0000 O   0  0  0  0  0  0  0  0  0  0  0  0
   -4.0667   -3.6527    0.0000 C   0  0  0  0  0  0  0  0  0  0  0  0
   -5.1814   -2.6490    0.0000 O   0  0  0  0  0  0  0  0  0  0  0  0
   -1.2135   -2.7256    0.0000 N   0  0  0  0  0  0  0  0  0  0  0  0
   -0.0000   -3.6073    0.0000 C   0  0  0  0  0  0  0  0  0  0  0  0
    1.2135   -2.7256    0.0000 C   0  0  0  0  0  0  0  0  0  0  0  0
    2.6401   -3.1891    0.0000 C   0  0  0  0  0  0  0  0  0  0  0  0
    3.7548   -2.1855    0.0000 O   0  0  0  0  0  0  0  0  0  0  0  0
    2.9520   -4.6564    0.0000 C   0  0  0  0  0  0  0  0  0  0  0  0
    1.8373   -5.6601    0.0000 C   0  0  0  0  0  0  0  0  0  0  0  0
    2.1491   -7.1273    0.0000 N   0  0  0  0  0  0  0  0  0  0  0  0
    3.5757   -7.5908    0.0000 C   0  0  0  0  0  0  0  0  0  0  0  0
    4.6904   -6.5871    0.0000 C   0  0  0  0  0  0  0  0  0  0  0  0
    6.1170   -7.0506    0.0000 N   0  0  0  0  0  0  0  0  0  0  0  0
    6.4289   -8.5179    0.0000 C   0  0  0  0  0  0  0  0  0  0  0  0
    5.3142   -9.5216    0.0000 O   0  0  0  0  0  0  0  0  0  0  0  0
    7.8555   -8.9814    0.0000 C   0  0  0  0  0  0  0  0  0  0  0  0
    8.1673  -10.4486    0.0000 C   0  0  0  0  0  0  0  0  0  0  0  0
    7.0526  -11.4523    0.0000 C   0  0  0  0  0  0  0  0  0  0  0  0
    7.3645  -12.9195    0.0000 C   0  0  0  0  0  0  0  0  0  0  0  0
    8.7911  -13.3831    0.0000 C   0  0  0  0  0  0  0  0  0  0  0  0
    9.1029  -14.8503    0.0000 Cl  0  0  0  0  0  0  0  0  0  0  0  0
    9.9058  -12.3794    0.0000 C   0  0  0  0  0  0  0  0  0  0  0  0
    9.5939  -10.9121    0.0000 C   0  0  0  0  0  0  0  0  0  0  0  0
    4.3786   -5.1199    0.0000 C   0  0  0  0  0  0  0  0  0  0  0  0
    0.7500   -1.2990    0.0000 C   0  0  0  0  0  0  0  0  0  0  0  0
    1.5000    0.0000    0.0000 C   0  0  0  0  0  0  0  0  0  0  0  0
    0.7500    1.2990    0.0000 N   0  0  0  0  0  0  0  0  0  0  0  0
   -0.7500    1.2990    0.0000 C   0  0  0  0  0  0  0  0  0  0  0  0
   -1.5000    0.0000    0.0000 N   0  0  0  0  0  0  0  0  0  0  0  0
   -0.7500   -1.2990    0.0000 C   0  0  0  0  0  0  0  0  0  0  0  0
  1  2  1  0
  2  3  1  0
  3  4  1  0
  2  5  1  0
  5  6  1  0
  2  7  1  0
  7  8  1  0
  8  9  2  0
  9 10  1  0
 10 11  2  0
 10 12  1  0
 12 13  2  0
 13 14  1  0
 14 15  2  0
 15 16  1  0
 16 17  1  0
 17 18  1  0
 18 19  2  0
 18 20  1  0
 20 21  1  0
 21 22  2  0
 22 23  1  0
 23 24  2  0
 24 25  1  0
 24 26  1  0
 26 27  2  0
 16 28  2  0
  9 29  1  0
 29 30  2  0
 30 31  1  0
 31 32  2  0
 32 33  1  0
 33 34  2  0
 34  7  1  0
 28 12  1  0
 34 29  1  0
 27 21  1  0
M  END
>  <Compound_ID>  (57) 
CHEMBL3661624

>  <Molecule Name>  (57) 
nan

>  <Molecular Weight>  (57) 
479.92

>  <AlogP>  (57) 
2.59

>  <Smiles>  (57) 
CC(CO)(CO)n1cc(C(=O)c2cncc(NC(=O)Cc3ccc(Cl)cc3)c2)c2cncnc21

>  <Standard Type>  (57) 
IC50

>  <Standard Relation>  (57) 
'='

>  <Standard Units>  (57) 
nM

>  <Standard Value>  (57) 
70.5

>  <Assay ChEMBL ID>  (57) 
CHEMBL3887033

>  <Assay Description>  (57) 
Enzyme Assay: Isolated TRK Enzyme assays use the HTRF KinEASE-TK kit (Cisbio Cat# 62TK0PEJ) with recombinant His-tagged cytoplasmic domains of each TRK receptor sourced from Invitrogen (see table below). This activity-assay measures the phosphorylation of tyrosine residues within a substrate from the HTRF kit which has been validated by Cisbio for a variety of tyrosine kinases including the TRK receptors. Assay details: Target:TRKA; Invitrogen Cat# PV3144; Amino acids:aa 441-796; FAC enzyme:4nM; FAC ATP:40uM; Assay Reaction Time:35min.

>  <BAO Format ID>  (57) 
BAO_0000357

>  <BAO Label>  (57) 
single protein format

>  <Assay Organism>  (57) 
None

>  <Target ChEMBL ID>  (57) 
CHEMBL2815

>  <Target Name>  (57) 
Nerve growth factor receptor Trk-A

>  <Target Organism>  (57) 
Homo sapiens

>  <Target Type>  (57) 
SINGLE PROTEIN

>  <Document ChEMBL ID>  (57) 
CHEMBL3639348

>  <Source Description>  (57) 
BindingDB Database

>  <Document Journal>  (57) 
nan

>  <Document Year>  (57) 
2014.0

>  <Active>  (57) 
1.0

>  <bits>  (57) 
<rdkit.DataStructs.cDataStructs.ExplicitBitVect object at 0x00000159F5490C10>

>  <Group>  (57) 
G2

$$$$

     RDKit          2D

 35 39  0  0  0  0  0  0  0  0999 V2000
   -6.6080   -3.1125    0.0000 C   0  0  0  0  0  0  0  0  0  0  0  0
   -5.1814   -2.6490    0.0000 O   0  0  0  0  0  0  0  0  0  0  0  0
   -4.0667   -3.6527    0.0000 C   0  0  0  0  0  0  0  0  0  0  0  0
   -2.6401   -3.1891    0.0000 C   0  0  0  0  0  0  0  0  0  0  0  0
   -2.1766   -4.6157    0.0000 C   0  0  0  0  0  0  0  0  0  0  0  0
   -3.1036   -1.7626    0.0000 C   0  0  0  0  0  0  0  0  0  0  0  0
   -1.2135   -2.7256    0.0000 N   0  0  0  0  0  0  0  0  0  0  0  0
   -0.0000   -3.6073    0.0000 C   0  0  0  0  0  0  0  0  0  0  0  0
    1.2135   -2.7256    0.0000 C   0  0  0  0  0  0  0  0  0  0  0  0
    2.6401   -3.1891    0.0000 C   0  0  0  0  0  0  0  0  0  0  0  0
    3.7548   -2.1855    0.0000 O   0  0  0  0  0  0  0  0  0  0  0  0
    2.9520   -4.6564    0.0000 C   0  0  0  0  0  0  0  0  0  0  0  0
    1.8373   -5.6601    0.0000 C   0  0  0  0  0  0  0  0  0  0  0  0
    2.1491   -7.1273    0.0000 N   0  0  0  0  0  0  0  0  0  0  0  0
    3.5757   -7.5908    0.0000 C   0  0  0  0  0  0  0  0  0  0  0  0
    4.6904   -6.5871    0.0000 C   0  0  0  0  0  0  0  0  0  0  0  0
    6.1170   -7.0506    0.0000 N   0  0  0  0  0  0  0  0  0  0  0  0
    6.4289   -8.5179    0.0000 C   0  0  0  0  0  0  0  0  0  0  0  0
    5.3142   -9.5216    0.0000 O   0  0  0  0  0  0  0  0  0  0  0  0
    7.8555   -8.9814    0.0000 C   0  0  0  0  0  0  0  0  0  0  0  0
    8.1673  -10.4486    0.0000 N   0  0  0  0  0  0  0  0  0  0  0  0
    9.5377  -11.0587    0.0000 C   0  0  0  0  0  0  0  0  0  0  0  0
    9.3809  -12.5505    0.0000 C   0  0  0  0  0  0  0  0  0  0  0  0
    7.9136  -12.8624    0.0000 C   0  0  0  0  0  0  0  0  0  0  0  0
    7.3035  -14.2327    0.0000 C   0  0  0  0  0  0  0  0  0  0  0  0
    7.4603  -15.7245    0.0000 C   0  0  0  0  0  0  0  0  0  0  0  0
    6.0900  -15.1144    0.0000 C   0  0  0  0  0  0  0  0  0  0  0  0
    7.1636  -11.5633    0.0000 N   0  0  0  0  0  0  0  0  0  0  0  0
    4.3786   -5.1199    0.0000 C   0  0  0  0  0  0  0  0  0  0  0  0
    0.7500   -1.2990    0.0000 C   0  0  0  0  0  0  0  0  0  0  0  0
    1.5000    0.0000    0.0000 C   0  0  0  0  0  0  0  0  0  0  0  0
    0.7500    1.2990    0.0000 N   0  0  0  0  0  0  0  0  0  0  0  0
   -0.7500    1.2990    0.0000 C   0  0  0  0  0  0  0  0  0  0  0  0
   -1.5000    0.0000    0.0000 N   0  0  0  0  0  0  0  0  0  0  0  0
   -0.7500   -1.2990    0.0000 C   0  0  0  0  0  0  0  0  0  0  0  0
  1  2  1  0
  2  3  1  0
  3  4  1  0
  4  5  1  0
  4  6  1  0
  4  7  1  0
  7  8  1  0
  8  9  2  0
  9 10  1  0
 10 11  2  0
 10 12  1  0
 12 13  2  0
 13 14  1  0
 14 15  2  0
 15 16  1  0
 16 17  1  0
 17 18  1  0
 18 19  2  0
 18 20  1  0
 20 21  1  0
 21 22  1  0
 22 23  2  0
 23 24  1  0
 24 25  1  0
 25 26  1  0
 26 27  1  0
 24 28  2  0
 16 29  2  0
  9 30  1  0
 30 31  2  0
 31 32  1  0
 32 33  2  0
 33 34  1  0
 34 35  2  0
 35  7  1  0
 29 12  1  0
 35 30  1  0
 28 21  1  0
 27 25  1  0
M  END
>  <Compound_ID>  (58) 
CHEMBL3671414

>  <Molecule Name>  (58) 
nan

>  <Molecular Weight>  (58) 
473.54

>  <AlogP>  (58) 
3.15

>  <Smiles>  (58) 
COCC(C)(C)n1cc(C(=O)c2cncc(NC(=O)Cn3ccc(C4CC4)n3)c2)c2cncnc21

>  <Standard Type>  (58) 
IC50

>  <Standard Relation>  (58) 
'='

>  <Standard Units>  (58) 
nM

>  <Standard Value>  (58) 
1.51

>  <Assay ChEMBL ID>  (58) 
CHEMBL3887033

>  <Assay Description>  (58) 
Enzyme Assay: Isolated TRK Enzyme assays use the HTRF KinEASE-TK kit (Cisbio Cat# 62TK0PEJ) with recombinant His-tagged cytoplasmic domains of each TRK receptor sourced from Invitrogen (see table below). This activity-assay measures the phosphorylation of tyrosine residues within a substrate from the HTRF kit which has been validated by Cisbio for a variety of tyrosine kinases including the TRK receptors. Assay details: Target:TRKA; Invitrogen Cat# PV3144; Amino acids:aa 441-796; FAC enzyme:4nM; FAC ATP:40uM; Assay Reaction Time:35min.

>  <BAO Format ID>  (58) 
BAO_0000357

>  <BAO Label>  (58) 
single protein format

>  <Assay Organism>  (58) 
None

>  <Target ChEMBL ID>  (58) 
CHEMBL2815

>  <Target Name>  (58) 
Nerve growth factor receptor Trk-A

>  <Target Organism>  (58) 
Homo sapiens

>  <Target Type>  (58) 
SINGLE PROTEIN

>  <Document ChEMBL ID>  (58) 
CHEMBL3639348

>  <Source Description>  (58) 
BindingDB Database

>  <Document Journal>  (58) 
nan

>  <Document Year>  (58) 
2014.0

>  <Active>  (58) 
1.0

>  <bits>  (58) 
<rdkit.DataStructs.cDataStructs.ExplicitBitVect object at 0x00000159F5491D90>

>  <Group>  (58) 
G2

$$$$

     RDKit          2D

 21 24  0  0  0  0  0  0  0  0999 V2000
   -2.6401   -3.1891    0.0000 C   0  0  0  0  0  0  0  0  0  0  0  0
   -1.2135   -2.7256    0.0000 N   0  0  0  0  0  0  0  0  0  0  0  0
   -0.0000   -3.6073    0.0000 C   0  0  0  0  0  0  0  0  0  0  0  0
    1.2135   -2.7256    0.0000 C   0  0  0  0  0  0  0  0  0  0  0  0
    2.6401   -3.1891    0.0000 C   0  0  0  0  0  0  0  0  0  0  0  0
    2.9520   -4.6564    0.0000 C   0  0  0  0  0  0  0  0  0  0  0  0
    1.9483   -5.7711    0.0000 C   0  0  0  0  0  0  0  0  0  0  0  0
    0.4565   -5.6143    0.0000 O   0  0  0  0  0  0  0  0  0  0  0  0
    2.6983   -7.0701    0.0000 N   0  0  0  0  0  0  0  0  0  0  0  0
    4.1655   -6.7583    0.0000 C   0  0  0  0  0  0  0  0  0  0  0  0
    5.3790   -7.6399    0.0000 N   0  0  0  0  0  0  0  0  0  0  0  0
    6.7493   -7.0298    0.0000 C   0  0  0  0  0  0  0  0  0  0  0  0
    6.9061   -5.5380    0.0000 C   0  0  0  0  0  0  0  0  0  0  0  0
    5.6926   -4.6564    0.0000 C   0  0  0  0  0  0  0  0  0  0  0  0
    4.3223   -5.2665    0.0000 C   0  0  0  0  0  0  0  0  0  0  0  0
    0.7500   -1.2990    0.0000 C   0  0  0  0  0  0  0  0  0  0  0  0
    1.5000    0.0000    0.0000 C   0  0  0  0  0  0  0  0  0  0  0  0
    0.7500    1.2990    0.0000 C   0  0  0  0  0  0  0  0  0  0  0  0
   -0.7500    1.2990    0.0000 C   0  0  0  0  0  0  0  0  0  0  0  0
   -1.5000    0.0000    0.0000 C   0  0  0  0  0  0  0  0  0  0  0  0
   -0.7500   -1.2990    0.0000 C   0  0  0  0  0  0  0  0  0  0  0  0
  1  2  1  0
  2  3  1  0
  3  4  2  0
  4  5  1  0
  5  6  2  0
  6  7  1  0
  7  8  2  0
  7  9  1  0
  9 10  1  0
 10 11  2  0
 11 12  1  0
 12 13  2  0
 13 14  1  0
 14 15  2  0
  4 16  1  0
 16 17  2  0
 17 18  1  0
 18 19  2  0
 19 20  1  0
 20 21  2  0
 21  2  1  0
 15  6  1  0
 21 16  1  0
 15 10  1  0
M  END
>  <Compound_ID>  (59) 
CHEMBL172179

>  <Molecule Name>  (59) 
nan

>  <Molecular Weight>  (59) 
275.31

>  <AlogP>  (59) 
3.07

>  <Smiles>  (59) 
Cn1cc(/C=C2\C(=O)Nc3ncccc32)c2ccccc21

>  <Standard Type>  (59) 
IC50

>  <Standard Relation>  (59) 
'='

>  <Standard Units>  (59) 
nM

>  <Standard Value>  (59) 
12.0

>  <Assay ChEMBL ID>  (59) 
CHEMBL818318

>  <Assay Description>  (59) 
Inhibition of receptor Tyrosine kinase A, TrkA (nerve growth factor receptor)

>  <BAO Format ID>  (59) 
BAO_0000357

>  <BAO Label>  (59) 
single protein format

>  <Assay Organism>  (59) 
None

>  <Target ChEMBL ID>  (59) 
CHEMBL2815

>  <Target Name>  (59) 
Nerve growth factor receptor Trk-A

>  <Target Organism>  (59) 
Homo sapiens

>  <Target Type>  (59) 
SINGLE PROTEIN

>  <Document ChEMBL ID>  (59) 
CHEMBL1147447

>  <Source Description>  (59) 
Scientific Literature

>  <Document Journal>  (59) 
Bioorg Med Chem Lett

>  <Document Year>  (59) 
2004.0

>  <Active>  (59) 
1.0

>  <bits>  (59) 
<rdkit.DataStructs.cDataStructs.ExplicitBitVect object at 0x00000159F5493610>

>  <Group>  (59) 
G2

$$$$

     RDKit          2D

 34 37  0  0  0  0  0  0  0  0999 V2000
   -6.6080   -3.1125    0.0000 C   0  0  0  0  0  0  0  0  0  0  0  0
   -5.1814   -2.6490    0.0000 O   0  0  0  0  0  0  0  0  0  0  0  0
   -4.0667   -3.6527    0.0000 C   0  0  0  0  0  0  0  0  0  0  0  0
   -2.6401   -3.1891    0.0000 C   0  0  0  0  0  0  0  0  0  0  0  0
   -2.1766   -4.6157    0.0000 C   0  0  0  0  0  0  0  0  0  0  0  0
   -3.1036   -1.7626    0.0000 C   0  0  0  0  0  0  0  0  0  0  0  0
   -1.2135   -2.7256    0.0000 N   0  0  0  0  0  0  0  0  0  0  0  0
   -0.0000   -3.6073    0.0000 C   0  0  0  0  0  0  0  0  0  0  0  0
    1.2135   -2.7256    0.0000 C   0  0  0  0  0  0  0  0  0  0  0  0
    2.6401   -3.1891    0.0000 C   0  0  0  0  0  0  0  0  0  0  0  0
    3.7548   -2.1855    0.0000 O   0  0  0  0  0  0  0  0  0  0  0  0
    2.9520   -4.6564    0.0000 C   0  0  0  0  0  0  0  0  0  0  0  0
    1.8373   -5.6601    0.0000 C   0  0  0  0  0  0  0  0  0  0  0  0
    2.1491   -7.1273    0.0000 N   0  0  0  0  0  0  0  0  0  0  0  0
    3.5757   -7.5908    0.0000 C   0  0  0  0  0  0  0  0  0  0  0  0
    4.6904   -6.5871    0.0000 C   0  0  0  0  0  0  0  0  0  0  0  0
    6.1170   -7.0506    0.0000 N   0  0  0  0  0  0  0  0  0  0  0  0
    6.4289   -8.5179    0.0000 C   0  0  0  0  0  0  0  0  0  0  0  0
    5.3142   -9.5216    0.0000 O   0  0  0  0  0  0  0  0  0  0  0  0
    7.8555   -8.9814    0.0000 C   0  0  0  0  0  0  0  0  0  0  0  0
    8.1673  -10.4486    0.0000 C   0  0  0  0  0  0  0  0  0  0  0  0
    7.0526  -11.4523    0.0000 C   0  0  0  0  0  0  0  0  0  0  0  0
    7.3645  -12.9195    0.0000 C   0  0  0  0  0  0  0  0  0  0  0  0
    8.7911  -13.3831    0.0000 C   0  0  0  0  0  0  0  0  0  0  0  0
    9.1029  -14.8503    0.0000 F   0  0  0  0  0  0  0  0  0  0  0  0
    9.9058  -12.3794    0.0000 C   0  0  0  0  0  0  0  0  0  0  0  0
    9.5939  -10.9121    0.0000 N   0  0  0  0  0  0  0  0  0  0  0  0
    4.3786   -5.1199    0.0000 C   0  0  0  0  0  0  0  0  0  0  0  0
    0.7500   -1.2990    0.0000 C   0  0  0  0  0  0  0  0  0  0  0  0
    1.5000    0.0000    0.0000 C   0  0  0  0  0  0  0  0  0  0  0  0
    0.7500    1.2990    0.0000 N   0  0  0  0  0  0  0  0  0  0  0  0
   -0.7500    1.2990    0.0000 C   0  0  0  0  0  0  0  0  0  0  0  0
   -1.5000    0.0000    0.0000 N   0  0  0  0  0  0  0  0  0  0  0  0
   -0.7500   -1.2990    0.0000 C   0  0  0  0  0  0  0  0  0  0  0  0
  1  2  1  0
  2  3  1  0
  3  4  1  0
  4  5  1  0
  4  6  1  0
  4  7  1  0
  7  8  1  0
  8  9  2  0
  9 10  1  0
 10 11  2  0
 10 12  1  0
 12 13  2  0
 13 14  1  0
 14 15  2  0
 15 16  1  0
 16 17  1  0
 17 18  1  0
 18 19  2  0
 18 20  1  0
 20 21  1  0
 21 22  2  0
 22 23  1  0
 23 24  2  0
 24 25  1  0
 24 26  1  0
 26 27  2  0
 16 28  2  0
  9 29  1  0
 29 30  2  0
 30 31  1  0
 31 32  2  0
 32 33  1  0
 33 34  2  0
 34  7  1  0
 28 12  1  0
 34 29  1  0
 27 21  1  0
M  END
>  <Compound_ID>  (60) 
CHEMBL3671413

>  <Molecule Name>  (60) 
nan

>  <Molecular Weight>  (60) 
462.49

>  <AlogP>  (60) 
3.15

>  <Smiles>  (60) 
COCC(C)(C)n1cc(C(=O)c2cncc(NC(=O)Cc3ccc(F)cn3)c2)c2cncnc21

>  <Standard Type>  (60) 
IC50

>  <Standard Relation>  (60) 
'='

>  <Standard Units>  (60) 
nM

>  <Standard Value>  (60) 
10.6

>  <Assay ChEMBL ID>  (60) 
CHEMBL3887033

>  <Assay Description>  (60) 
Enzyme Assay: Isolated TRK Enzyme assays use the HTRF KinEASE-TK kit (Cisbio Cat# 62TK0PEJ) with recombinant His-tagged cytoplasmic domains of each TRK receptor sourced from Invitrogen (see table below). This activity-assay measures the phosphorylation of tyrosine residues within a substrate from the HTRF kit which has been validated by Cisbio for a variety of tyrosine kinases including the TRK receptors. Assay details: Target:TRKA; Invitrogen Cat# PV3144; Amino acids:aa 441-796; FAC enzyme:4nM; FAC ATP:40uM; Assay Reaction Time:35min.

>  <BAO Format ID>  (60) 
BAO_0000357

>  <BAO Label>  (60) 
single protein format

>  <Assay Organism>  (60) 
None

>  <Target ChEMBL ID>  (60) 
CHEMBL2815

>  <Target Name>  (60) 
Nerve growth factor receptor Trk-A

>  <Target Organism>  (60) 
Homo sapiens

>  <Target Type>  (60) 
SINGLE PROTEIN

>  <Document ChEMBL ID>  (60) 
CHEMBL3639348

>  <Source Description>  (60) 
BindingDB Database

>  <Document Journal>  (60) 
nan

>  <Document Year>  (60) 
2014.0

>  <Active>  (60) 
1.0

>  <bits>  (60) 
<rdkit.DataStructs.cDataStructs.ExplicitBitVect object at 0x00000159F54912A0>

>  <Group>  (60) 
G2

$$$$

     RDKit          2D

 24 26  0  0  0  0  0  0  0  0999 V2000
    5.4627   -4.5501    0.0000 N   0  0  0  0  0  0  0  0  0  0  0  0
    3.9955   -4.2382    0.0000 C   0  0  0  0  0  0  0  0  0  0  0  0
    3.5320   -2.8116    0.0000 O   0  0  0  0  0  0  0  0  0  0  0  0
    2.9918   -5.3529    0.0000 C   0  0  0  0  0  0  0  0  0  0  0  0
    1.5000   -5.1962    0.0000 C   0  0  0  0  0  0  0  0  0  0  0  0
    0.7500   -3.8971    0.0000 S   0  0  0  0  0  0  0  0  0  0  0  0
    1.5000   -2.5981    0.0000 C   0  0  0  0  0  0  0  0  0  0  0  0
    0.7500   -1.2990    0.0000 C   0  0  0  0  0  0  0  0  0  0  0  0
    1.5000    0.0000    0.0000 C   0  0  0  0  0  0  0  0  0  0  0  0
    0.7500    1.2990    0.0000 C   0  0  0  0  0  0  0  0  0  0  0  0
   -0.7500    1.2990    0.0000 C   0  0  0  0  0  0  0  0  0  0  0  0
   -1.5000    0.0000    0.0000 C   0  0  0  0  0  0  0  0  0  0  0  0
   -0.7500   -1.2990    0.0000 C   0  0  0  0  0  0  0  0  0  0  0  0
   -1.5000   -2.5981    0.0000 Cl  0  0  0  0  0  0  0  0  0  0  0  0
    0.8899   -6.5665    0.0000 N   0  0  0  0  0  0  0  0  0  0  0  0
    2.0046   -7.5702    0.0000 S   0  0  0  0  0  0  0  0  0  0  0  0
    3.3037   -6.8202    0.0000 C   0  0  0  0  0  0  0  0  0  0  0  0
    4.6740   -7.4303    0.0000 N   0  0  0  0  0  0  0  0  0  0  0  0
    4.8308   -8.9221    0.0000 C   0  0  0  0  0  0  0  0  0  0  0  0
    3.6172   -9.8037    0.0000 C   0  0  0  0  0  0  0  0  0  0  0  0
    3.7740  -11.2955    0.0000 C   0  0  0  0  0  0  0  0  0  0  0  0
    5.1443  -11.9056    0.0000 N   0  0  0  0  0  0  0  0  0  0  0  0
    6.3579  -11.0239    0.0000 C   0  0  0  0  0  0  0  0  0  0  0  0
    6.2011   -9.5322    0.0000 C   0  0  0  0  0  0  0  0  0  0  0  0
  1  2  1  0
  2  3  2  0
  2  4  1  0
  4  5  1  0
  5  6  1  0
  6  7  1  0
  7  8  1  0
  8  9  2  0
  9 10  1  0
 10 11  2  0
 11 12  1  0
 12 13  2  0
 13 14  1  0
  5 15  2  0
 15 16  1  0
 16 17  1  0
 17 18  1  0
 18 19  1  0
 19 20  2  0
 20 21  1  0
 21 22  2  0
 22 23  1  0
 23 24  2  0
 17  4  2  0
 24 19  1  0
 13  8  1  0
M  END
>  <Compound_ID>  (61) 
CHEMBL377243

>  <Molecule Name>  (61) 
nan

>  <Molecular Weight>  (61) 
376.89

>  <AlogP>  (61) 
4.33

>  <Smiles>  (61) 
NC(=O)c1c(SCc2ccccc2Cl)nsc1Nc1ccncc1

>  <Standard Type>  (61) 
IC50

>  <Standard Relation>  (61) 
'='

>  <Standard Units>  (61) 
nM

>  <Standard Value>  (61) 
28.0

>  <Assay ChEMBL ID>  (61) 
CHEMBL867240

>  <Assay Description>  (61) 
Inhibition of TrkA kinase

>  <BAO Format ID>  (61) 
BAO_0000357

>  <BAO Label>  (61) 
single protein format

>  <Assay Organism>  (61) 
Homo sapiens

>  <Target ChEMBL ID>  (61) 
CHEMBL2815

>  <Target Name>  (61) 
Nerve growth factor receptor Trk-A

>  <Target Organism>  (61) 
Homo sapiens

>  <Target Type>  (61) 
SINGLE PROTEIN

>  <Document ChEMBL ID>  (61) 
CHEMBL1138090

>  <Source Description>  (61) 
Scientific Literature

>  <Document Journal>  (61) 
Bioorg Med Chem Lett

>  <Document Year>  (61) 
2006.0

>  <Active>  (61) 
1.0

>  <bits>  (61) 
<rdkit.DataStructs.cDataStructs.ExplicitBitVect object at 0x00000159F54935A0>

>  <Group>  (61) 
G2

$$$$

     RDKit          2D

 38 43  0  0  0  0  0  0  0  0999 V2000
   -2.9520   -4.6564    0.0000 C   0  0  0  0  0  0  0  0  0  0  0  0
   -2.6401   -3.1891    0.0000 C   0  0  0  0  0  0  0  0  0  0  0  0
   -3.7548   -2.1855    0.0000 C   0  0  0  0  0  0  0  0  0  0  0  0
   -1.2135   -2.7256    0.0000 N   0  0  0  0  0  0  0  0  0  0  0  0
   -0.0000   -3.6073    0.0000 C   0  0  0  0  0  0  0  0  0  0  0  0
    1.2135   -2.7256    0.0000 C   0  0  0  0  0  0  0  0  0  0  0  0
    2.6401   -3.1891    0.0000 C   0  0  0  0  0  0  0  0  0  0  0  0
    3.7548   -2.1855    0.0000 O   0  0  0  0  0  0  0  0  0  0  0  0
    2.9520   -4.6564    0.0000 C   0  0  0  0  0  0  0  0  0  0  0  0
    1.8373   -5.6601    0.0000 C   0  0  0  0  0  0  0  0  0  0  0  0
    2.1491   -7.1273    0.0000 N   0  0  0  0  0  0  0  0  0  0  0  0
    3.5757   -7.5908    0.0000 C   0  0  0  0  0  0  0  0  0  0  0  0
    4.6904   -6.5871    0.0000 C   0  0  0  0  0  0  0  0  0  0  0  0
    6.1170   -7.0506    0.0000 N   0  0  0  0  0  0  0  0  0  0  0  0
    6.4289   -8.5179    0.0000 C   0  0  0  0  0  0  0  0  0  0  0  0
    5.3142   -9.5216    0.0000 O   0  0  0  0  0  0  0  0  0  0  0  0
    7.8555   -8.9814    0.0000 N   0  0  0  0  0  0  0  0  0  0  0  0
    8.1673  -10.4486    0.0000 C   0  0  0  0  0  0  0  0  0  0  0  0
    7.1636  -11.5633    0.0000 C   0  0  0  0  0  0  0  0  0  0  0  0
    7.9136  -12.8624    0.0000 C   0  0  0  0  0  0  0  0  0  0  0  0
    7.3035  -14.2327    0.0000 C   0  0  0  0  0  0  0  0  0  0  0  0
    6.0900  -15.1144    0.0000 C   0  0  0  0  0  0  0  0  0  0  0  0
    7.4603  -15.7245    0.0000 C   0  0  0  0  0  0  0  0  0  0  0  0
    9.3809  -12.5505    0.0000 N   0  0  0  0  0  0  0  0  0  0  0  0
    9.5377  -11.0587    0.0000 N   0  0  0  0  0  0  0  0  0  0  0  0
   10.8367  -10.3087    0.0000 C   0  0  0  0  0  0  0  0  0  0  0  0
   10.9935   -8.8169    0.0000 C   0  0  0  0  0  0  0  0  0  0  0  0
   12.4607   -8.5051    0.0000 N   0  0  0  0  0  0  0  0  0  0  0  0
   13.2107   -9.8041    0.0000 N   0  0  0  0  0  0  0  0  0  0  0  0
   14.7025   -9.9609    0.0000 C   0  0  0  0  0  0  0  0  0  0  0  0
   12.2070  -10.9188    0.0000 C   0  0  0  0  0  0  0  0  0  0  0  0
    4.3786   -5.1199    0.0000 C   0  0  0  0  0  0  0  0  0  0  0  0
    0.7500   -1.2990    0.0000 C   0  0  0  0  0  0  0  0  0  0  0  0
    1.5000    0.0000    0.0000 C   0  0  0  0  0  0  0  0  0  0  0  0
    0.7500    1.2990    0.0000 N   0  0  0  0  0  0  0  0  0  0  0  0
   -0.7500    1.2990    0.0000 C   0  0  0  0  0  0  0  0  0  0  0  0
   -1.5000    0.0000    0.0000 N   0  0  0  0  0  0  0  0  0  0  0  0
   -0.7500   -1.2990    0.0000 C   0  0  0  0  0  0  0  0  0  0  0  0
  1  2  1  0
  2  3  1  0
  2  4  1  0
  4  5  1  0
  5  6  2  0
  6  7  1  0
  7  8  2  0
  7  9  1  0
  9 10  2  0
 10 11  1  0
 11 12  2  0
 12 13  1  0
 13 14  1  0
 14 15  1  0
 15 16  2  0
 15 17  1  0
 17 18  1  0
 18 19  2  0
 19 20  1  0
 20 21  1  0
 21 22  1  0
 22 23  1  0
 20 24  2  0
 24 25  1  0
 25 26  1  0
 26 27  1  0
 27 28  2  0
 28 29  1  0
 29 30  1  0
 29 31  1  0
 13 32  2  0
  6 33  1  0
 33 34  2  0
 34 35  1  0
 35 36  2  0
 36 37  1  0
 37 38  2  0
 38  4  1  0
 32  9  1  0
 38 33  1  0
 25 18  1  0
 31 26  2  0
 23 21  1  0
M  END
>  <Compound_ID>  (62) 
CHEMBL3671460

>  <Molecule Name>  (62) 
nan

>  <Molecular Weight>  (62) 
510.56

>  <AlogP>  (62) 
4.08

>  <Smiles>  (62) 
CC(C)n1cc(C(=O)c2cncc(NC(=O)Nc3cc(C4CC4)nn3-c3cnn(C)c3)c2)c2cncnc21

>  <Standard Type>  (62) 
IC50

>  <Standard Relation>  (62) 
'='

>  <Standard Units>  (62) 
nM

>  <Standard Value>  (62) 
1.51

>  <Assay ChEMBL ID>  (62) 
CHEMBL3887033

>  <Assay Description>  (62) 
Enzyme Assay: Isolated TRK Enzyme assays use the HTRF KinEASE-TK kit (Cisbio Cat# 62TK0PEJ) with recombinant His-tagged cytoplasmic domains of each TRK receptor sourced from Invitrogen (see table below). This activity-assay measures the phosphorylation of tyrosine residues within a substrate from the HTRF kit which has been validated by Cisbio for a variety of tyrosine kinases including the TRK receptors. Assay details: Target:TRKA; Invitrogen Cat# PV3144; Amino acids:aa 441-796; FAC enzyme:4nM; FAC ATP:40uM; Assay Reaction Time:35min.

>  <BAO Format ID>  (62) 
BAO_0000357

>  <BAO Label>  (62) 
single protein format

>  <Assay Organism>  (62) 
None

>  <Target ChEMBL ID>  (62) 
CHEMBL2815

>  <Target Name>  (62) 
Nerve growth factor receptor Trk-A

>  <Target Organism>  (62) 
Homo sapiens

>  <Target Type>  (62) 
SINGLE PROTEIN

>  <Document ChEMBL ID>  (62) 
CHEMBL3639348

>  <Source Description>  (62) 
BindingDB Database

>  <Document Journal>  (62) 
nan

>  <Document Year>  (62) 
2014.0

>  <Active>  (62) 
1.0

>  <bits>  (62) 
<rdkit.DataStructs.cDataStructs.ExplicitBitVect object at 0x00000159F5493F40>

>  <Group>  (62) 
G2

$$$$

     RDKit          2D

 31 35  0  0  0  0  0  0  0  0999 V2000
   -8.9374   -5.2352    0.0000 C   0  0  0  0  0  0  0  0  0  0  0  0
   -7.8226   -6.2389    0.0000 O   0  0  0  0  0  0  0  0  0  0  0  0
   -6.3961   -5.7754    0.0000 C   0  0  0  0  0  0  0  0  0  0  0  0
   -5.7151   -4.4389    0.0000 C   0  0  0  0  0  0  0  0  0  0  0  0
   -4.3786   -5.1199    0.0000 N   0  0  0  0  0  0  0  0  0  0  0  0
   -2.9520   -4.6564    0.0000 C   0  0  0  0  0  0  0  0  0  0  0  0
   -1.8373   -5.6601    0.0000 O   0  0  0  0  0  0  0  0  0  0  0  0
   -2.6401   -3.1891    0.0000 N   0  0  0  0  0  0  0  0  0  0  0  0
   -1.2135   -2.7256    0.0000 C   0  0  0  0  0  0  0  0  0  0  0  0
   -0.0000   -3.6073    0.0000 C   0  0  0  0  0  0  0  0  0  0  0  0
    1.2135   -2.7256    0.0000 N   0  0  0  0  0  0  0  0  0  0  0  0
    0.7500   -1.2990    0.0000 C   0  0  0  0  0  0  0  0  0  0  0  0
    1.5000    0.0000    0.0000 C   0  0  0  0  0  0  0  0  0  0  0  0
    0.7500    1.2990    0.0000 C   0  0  0  0  0  0  0  0  0  0  0  0
   -0.7500    1.2990    0.0000 C   0  0  0  0  0  0  0  0  0  0  0  0
   -1.5000    2.5981    0.0000 N   0  0  0  0  0  0  0  0  0  0  0  0
   -2.9918    2.7549    0.0000 C   0  0  0  0  0  0  0  0  0  0  0  0
   -3.3037    4.2221    0.0000 C   0  0  0  0  0  0  0  0  0  0  0  0
   -2.0046    4.9721    0.0000 C   0  0  0  0  0  0  0  0  0  0  0  0
   -0.8899    3.9684    0.0000 C   0  0  0  0  0  0  0  0  0  0  0  0
    0.5773    4.2803    0.0000 C   0  0  0  0  0  0  0  0  0  0  0  0
    1.5810    3.1655    0.0000 C   0  0  0  0  0  0  0  0  0  0  0  0
    3.0482    3.4774    0.0000 C   0  0  0  0  0  0  0  0  0  0  0  0
    4.0519    2.3627    0.0000 F   0  0  0  0  0  0  0  0  0  0  0  0
    3.5118    4.9040    0.0000 C   0  0  0  0  0  0  0  0  0  0  0  0
    2.5081    6.0187    0.0000 C   0  0  0  0  0  0  0  0  0  0  0  0
    1.0409    5.7068    0.0000 C   0  0  0  0  0  0  0  0  0  0  0  0
    0.0372    6.8216    0.0000 F   0  0  0  0  0  0  0  0  0  0  0  0
   -1.5000    0.0000    0.0000 N   0  0  0  0  0  0  0  0  0  0  0  0
   -0.7500   -1.2990    0.0000 N   0  0  0  0  0  0  0  0  0  0  0  0
   -5.0595   -6.4564    0.0000 C   0  0  0  0  0  0  0  0  0  0  0  0
  1  2  1  0
  2  3  1  0
  3  4  1  0
  4  5  1  0
  5  6  1  0
  6  7  2  0
  6  8  1  0
  8  9  1  0
  9 10  2  0
 10 11  1  0
 11 12  2  0
 12 13  1  0
 13 14  2  0
 14 15  1  0
 15 16  1  0
 16 17  1  0
 17 18  1  0
 18 19  1  0
 19 20  1  0
 20 21  1  6
 21 22  2  0
 22 23  1  0
 23 24  1  0
 23 25  2  0
 25 26  1  0
 26 27  2  0
 27 28  1  0
 15 29  2  0
 29 30  1  0
  5 31  1  0
 31  3  1  0
 30  9  1  0
 30 12  1  0
 20 16  1  0
 27 21  1  0
M  END
>  <Compound_ID>  (63) 
CHEMBL4110351

>  <Molecule Name>  (63) 
nan

>  <Molecular Weight>  (63) 
428.44

>  <AlogP>  (63) 
3.21

>  <Smiles>  (63) 
COC1CN(C(=O)Nc2cnc3ccc(N4CCC[C@@H]4c4cc(F)ccc4F)nn23)C1

>  <Standard Type>  (63) 
IC50

>  <Standard Relation>  (63) 
'='

>  <Standard Units>  (63) 
nM

>  <Standard Value>  (63) 
16.4

>  <Assay ChEMBL ID>  (63) 
CHEMBL3887826

>  <Assay Description>  (63) 
ELISA Assay: An enzyme-linked immunosorbant assay (ELISA) was used to assess TrkA kinase activity in the presence of inhibitors. Immulon 4HBX 384-well microtiter plates (Thermo part #8755) were coated with a 0.025 mg/mL solution of poly (Glu, Ala, Tyr; 6:3:1; Sigma P3899). Various concentrations of test compound, 2.5 nM TrkA (Invitrogen Corp., histidine-tagged recombinant human TrkA, cytoplasmic domain), and 500 uM ATP were incubated for 25 minutes at ambient temperature in the coated plates while shaking. The assay buffer consisted of 25 mM MOPS pH 7.5, 0.005% (v/v) Triton X-100 and 5 mM MgCl2. The reaction mixture was removed from the plate by washing with PBS containing 0.1% (v/v) Tween 20. The phosphorylated reaction product was detected using 0.2 ug/mL of a phosphotyrosine specific monoclonal antibody (clone PY20) conjugated to horseradish peroxidase in conjunction with the TMB Peroxidase Substrate System (KPL).

>  <BAO Format ID>  (63) 
BAO_0000357

>  <BAO Label>  (63) 
single protein format

>  <Assay Organism>  (63) 
None

>  <Target ChEMBL ID>  (63) 
CHEMBL2815

>  <Target Name>  (63) 
Nerve growth factor receptor Trk-A

>  <Target Organism>  (63) 
Homo sapiens

>  <Target Type>  (63) 
SINGLE PROTEIN

>  <Document ChEMBL ID>  (63) 
CHEMBL3886465

>  <Source Description>  (63) 
BindingDB Database

>  <Document Journal>  (63) 
nan

>  <Document Year>  (63) 
2016.0

>  <Active>  (63) 
1.0

>  <bits>  (63) 
<rdkit.DataStructs.cDataStructs.ExplicitBitVect object at 0x00000159F5493CA0>

>  <Group>  (63) 
G2

$$$$

     RDKit          2D

 24 29  0  0  0  0  0  0  0  0999 V2000
    4.2660   -1.2584    0.0000 O   0  0  0  0  0  0  0  0  0  0  0  0
    3.9542   -2.7256    0.0000 C   0  0  0  0  0  0  0  0  0  0  0  0
    4.9579   -3.8403    0.0000 N   0  0  0  0  0  0  0  0  0  0  0  0
    4.2079   -5.1394    0.0000 C   0  0  0  0  0  0  0  0  0  0  0  0
    2.7406   -4.8275    0.0000 C   0  0  0  0  0  0  0  0  0  0  0  0
    2.5838   -3.3357    0.0000 C   0  0  0  0  0  0  0  0  0  0  0  0
    1.2135   -2.7256    0.0000 C   0  0  0  0  0  0  0  0  0  0  0  0
    0.7500   -1.2990    0.0000 C   0  0  0  0  0  0  0  0  0  0  0  0
    1.5000    0.0000    0.0000 C   0  0  0  0  0  0  0  0  0  0  0  0
    0.7500    1.2990    0.0000 C   0  0  0  0  0  0  0  0  0  0  0  0
   -0.7500    1.2990    0.0000 C   0  0  0  0  0  0  0  0  0  0  0  0
   -1.5000    0.0000    0.0000 C   0  0  0  0  0  0  0  0  0  0  0  0
   -0.7500   -1.2990    0.0000 C   0  0  0  0  0  0  0  0  0  0  0  0
   -1.2135   -2.7256    0.0000 S   0  0  0  0  0  0  0  0  0  0  0  0
    0.0000   -3.6073    0.0000 C   0  0  0  0  0  0  0  0  0  0  0  0
    0.1568   -5.0991    0.0000 C   0  0  0  0  0  0  0  0  0  0  0  0
   -0.8469   -6.2138    0.0000 N   0  0  0  0  0  0  0  0  0  0  0  0
   -0.0969   -7.5128    0.0000 C   0  0  0  0  0  0  0  0  0  0  0  0
   -0.5604   -8.9394    0.0000 C   0  0  0  0  0  0  0  0  0  0  0  0
    0.4433  -10.0541    0.0000 C   0  0  0  0  0  0  0  0  0  0  0  0
    1.9105   -9.7423    0.0000 C   0  0  0  0  0  0  0  0  0  0  0  0
    2.3740   -8.3157    0.0000 C   0  0  0  0  0  0  0  0  0  0  0  0
    1.3703   -7.2010    0.0000 C   0  0  0  0  0  0  0  0  0  0  0  0
    1.5271   -5.7092    0.0000 C   0  0  0  0  0  0  0  0  0  0  0  0
  1  2  2  0
  2  3  1  0
  3  4  1  0
  4  5  1  0
  5  6  2  0
  6  7  1  0
  7  8  1  0
  8  9  2  0
  9 10  1  0
 10 11  2  0
 11 12  1  0
 12 13  2  0
 13 14  1  0
 14 15  1  0
 15 16  1  0
 16 17  1  0
 17 18  1  0
 18 19  2  0
 19 20  1  0
 20 21  2  0
 21 22  1  0
 22 23  2  0
 23 24  1  0
  6  2  1  0
 15  7  2  0
 24 16  2  0
 24  5  1  0
 13  8  1  0
 23 18  1  0
M  END
>  <Compound_ID>  (64) 
CHEMBL221536

>  <Molecule Name>  (64) 
nan

>  <Molecular Weight>  (64) 
328.4

>  <AlogP>  (64) 
4.93

>  <Smiles>  (64) 
O=C1NCc2c1c1c3ccccc3sc1c1[nH]c3ccccc3c21

>  <Standard Type>  (64) 
IC50

>  <Standard Relation>  (64) 
'='

>  <Standard Units>  (64) 
nM

>  <Standard Value>  (64) 
88.0

>  <Assay ChEMBL ID>  (64) 
CHEMBL911983

>  <Assay Description>  (64) 
Inhibition of TrkA

>  <BAO Format ID>  (64) 
BAO_0000357

>  <BAO Label>  (64) 
single protein format

>  <Assay Organism>  (64) 
Homo sapiens

>  <Target ChEMBL ID>  (64) 
CHEMBL2815

>  <Target Name>  (64) 
Nerve growth factor receptor Trk-A

>  <Target Organism>  (64) 
Homo sapiens

>  <Target Type>  (64) 
SINGLE PROTEIN

>  <Document ChEMBL ID>  (64) 
CHEMBL1141396

>  <Source Description>  (64) 
Scientific Literature

>  <Document Journal>  (64) 
J Med Chem

>  <Document Year>  (64) 
2007.0

>  <Active>  (64) 
1.0

>  <bits>  (64) 
<rdkit.DataStructs.cDataStructs.ExplicitBitVect object at 0x00000159F5493680>

>  <Group>  (64) 
G2

$$$$

     RDKit          2D

 36 39  0  0  0  0  0  0  0  0999 V2000
   -2.1766   -4.6157    0.0000 C   0  0  0  0  0  0  0  0  0  0  0  0
   -2.6401   -3.1891    0.0000 C   0  0  0  0  0  0  0  0  0  0  0  0
   -3.1036   -1.7626    0.0000 C   0  0  0  0  0  0  0  0  0  0  0  0
   -4.0667   -3.6527    0.0000 C   0  0  0  0  0  0  0  0  0  0  0  0
   -5.1814   -2.6490    0.0000 O   0  0  0  0  0  0  0  0  0  0  0  0
   -1.2135   -2.7256    0.0000 N   0  0  0  0  0  0  0  0  0  0  0  0
   -0.0000   -3.6073    0.0000 C   0  0  0  0  0  0  0  0  0  0  0  0
    1.2135   -2.7256    0.0000 C   0  0  0  0  0  0  0  0  0  0  0  0
    2.6401   -3.1891    0.0000 C   0  0  0  0  0  0  0  0  0  0  0  0
    3.7548   -2.1855    0.0000 O   0  0  0  0  0  0  0  0  0  0  0  0
    2.9520   -4.6564    0.0000 C   0  0  0  0  0  0  0  0  0  0  0  0
    1.8373   -5.6601    0.0000 C   0  0  0  0  0  0  0  0  0  0  0  0
    2.1491   -7.1273    0.0000 N   0  0  0  0  0  0  0  0  0  0  0  0
    3.5757   -7.5908    0.0000 C   0  0  0  0  0  0  0  0  0  0  0  0
    4.6904   -6.5871    0.0000 C   0  0  0  0  0  0  0  0  0  0  0  0
    6.1170   -7.0506    0.0000 N   0  0  0  0  0  0  0  0  0  0  0  0
    6.4289   -8.5179    0.0000 C   0  0  0  0  0  0  0  0  0  0  0  0
    5.3142   -9.5216    0.0000 O   0  0  0  0  0  0  0  0  0  0  0  0
    7.8555   -8.9814    0.0000 C   0  0  0  0  0  0  0  0  0  0  0  0
    8.1673  -10.4486    0.0000 N   0  0  0  0  0  0  0  0  0  0  0  0
    9.5377  -11.0587    0.0000 C   0  0  0  0  0  0  0  0  0  0  0  0
    9.3809  -12.5505    0.0000 C   0  0  0  0  0  0  0  0  0  0  0  0
    7.9136  -12.8624    0.0000 C   0  0  0  0  0  0  0  0  0  0  0  0
    7.3035  -14.2327    0.0000 C   0  0  0  0  0  0  0  0  0  0  0  0
    6.6934  -15.6030    0.0000 F   0  0  0  0  0  0  0  0  0  0  0  0
    5.9332  -13.6226    0.0000 F   0  0  0  0  0  0  0  0  0  0  0  0
    8.6739  -14.8428    0.0000 F   0  0  0  0  0  0  0  0  0  0  0  0
    7.1636  -11.5633    0.0000 N   0  0  0  0  0  0  0  0  0  0  0  0
    4.3786   -5.1199    0.0000 C   0  0  0  0  0  0  0  0  0  0  0  0
    0.7500   -1.2990    0.0000 C   0  0  0  0  0  0  0  0  0  0  0  0
    1.5000    0.0000    0.0000 C   0  0  0  0  0  0  0  0  0  0  0  0
    0.7500    1.2990    0.0000 N   0  0  0  0  0  0  0  0  0  0  0  0
   -0.7500    1.2990    0.0000 C   0  0  0  0  0  0  0  0  0  0  0  0
   -1.5000    0.0000    0.0000 C   0  0  0  0  0  0  0  0  0  0  0  0
   -3.0000    0.0000    0.0000 F   0  0  0  0  0  0  0  0  0  0  0  0
   -0.7500   -1.2990    0.0000 C   0  0  0  0  0  0  0  0  0  0  0  0
  1  2  1  0
  2  3  1  0
  2  4  1  0
  4  5  1  0
  2  6  1  0
  6  7  1  0
  7  8  2  0
  8  9  1  0
  9 10  2  0
  9 11  1  0
 11 12  2  0
 12 13  1  0
 13 14  2  0
 14 15  1  0
 15 16  1  0
 16 17  1  0
 17 18  2  0
 17 19  1  0
 19 20  1  0
 20 21  1  0
 21 22  2  0
 22 23  1  0
 23 24  1  0
 24 25  1  0
 24 26  1  0
 24 27  1  0
 23 28  2  0
 15 29  2  0
  8 30  1  0
 30 31  2  0
 31 32  1  0
 32 33  2  0
 33 34  1  0
 34 35  1  0
 34 36  2  0
 36  6  1  0
 29 11  1  0
 36 30  1  0
 28 20  1  0
M  END
>  <Compound_ID>  (65) 
CHEMBL3969718

>  <Molecule Name>  (65) 
nan

>  <Molecular Weight>  (65) 
504.44

>  <AlogP>  (65) 
3.38

>  <Smiles>  (65) 
CC(C)(CO)n1cc(C(=O)c2cncc(NC(=O)Cn3ccc(C(F)(F)F)n3)c2)c2cncc(F)c21

>  <Standard Type>  (65) 
IC50

>  <Standard Relation>  (65) 
'='

>  <Standard Units>  (65) 
nM

>  <Standard Value>  (65) 
2.92

>  <Assay ChEMBL ID>  (65) 
CHEMBL3887111

>  <Assay Description>  (65) 
HTRF Assay: Isolated TRK Enzyme assays use the HTRF KinEASE-TK kit (Cisbio Cat#62TK0PEJ) with recombinant His-tagged cytoplasmic domains of each TRK receptor sourced from Invitrogen (see table below). This activity-assay measures the phosphorylation of tyrosine residues within a substrate from the HTRF kit which has been validated by Cisbio for a variety of tyrosine kinases including the TRK receptors.Assay Details: Invitrogen Amino FAC FAC Assay ReactionTarget Cat# acids enzyme ATP TimeTRKA PV3144 aa 441-4 nM 40 uM 35 min (NTRK1) 796 TRKB PV3616 aa 526-1 nM 1.4 uM 40 min (NTRK2) 838 TRKC PV3617 aa 510- 10 nM 15 uM 30 min (NTRK3) 8250.5 mM stock solutions of test compounds are prepared and serially diluted in 100% DMSO. A standard curve using the compound of Example 135 disclosed in WO2005/116035 of 150 uM is also prepared on each test plate. High percentage effect (HPE) is defined by 150 uM.

>  <BAO Format ID>  (65) 
BAO_0000357

>  <BAO Label>  (65) 
single protein format

>  <Assay Organism>  (65) 
None

>  <Target ChEMBL ID>  (65) 
CHEMBL2815

>  <Target Name>  (65) 
Nerve growth factor receptor Trk-A

>  <Target Organism>  (65) 
Homo sapiens

>  <Target Type>  (65) 
SINGLE PROTEIN

>  <Document ChEMBL ID>  (65) 
CHEMBL3886170

>  <Source Description>  (65) 
BindingDB Database

>  <Document Journal>  (65) 
nan

>  <Document Year>  (65) 
2015.0

>  <Active>  (65) 
1.0

>  <bits>  (65) 
<rdkit.DataStructs.cDataStructs.ExplicitBitVect object at 0x00000159F5493450>

>  <Group>  (65) 
G2

$$$$

     RDKit          2D

 37 40  0  0  0  0  0  0  0  0999 V2000
   -5.6260  -10.9888    0.0000 C   0  0  0  0  0  0  0  0  0  0  0  0
   -5.3142   -9.5216    0.0000 C   0  0  0  0  0  0  0  0  0  0  0  0
   -3.8876   -9.0580    0.0000 O   0  0  0  0  0  0  0  0  0  0  0  0
   -3.5757   -7.5908    0.0000 C   0  0  0  0  0  0  0  0  0  0  0  0
   -4.6904   -6.5871    0.0000 N   0  0  0  0  0  0  0  0  0  0  0  0
   -4.3786   -5.1199    0.0000 C   0  0  0  0  0  0  0  0  0  0  0  0
   -2.9520   -4.6564    0.0000 C   0  0  0  0  0  0  0  0  0  0  0  0
   -2.6401   -3.1891    0.0000 C   0  0  0  0  0  0  0  0  0  0  0  0
   -3.7548   -2.1855    0.0000 O   0  0  0  0  0  0  0  0  0  0  0  0
   -1.2135   -2.7256    0.0000 C   0  0  0  0  0  0  0  0  0  0  0  0
   -0.0000   -3.6073    0.0000 C   0  0  0  0  0  0  0  0  0  0  0  0
    1.2135   -2.7256    0.0000 N   0  0  0  0  0  0  0  0  0  0  0  0
    2.6401   -3.1891    0.0000 C   0  0  0  0  0  0  0  0  0  0  0  0
    2.9520   -4.6564    0.0000 C   0  0  0  0  0  0  0  0  0  0  0  0
    3.7548   -2.1855    0.0000 C   0  0  0  0  0  0  0  0  0  0  0  0
    0.7500   -1.2990    0.0000 C   0  0  0  0  0  0  0  0  0  0  0  0
    1.5000    0.0000    0.0000 N   0  0  0  0  0  0  0  0  0  0  0  0
    0.7500    1.2990    0.0000 C   0  0  0  0  0  0  0  0  0  0  0  0
   -0.7500    1.2990    0.0000 N   0  0  0  0  0  0  0  0  0  0  0  0
   -1.5000    0.0000    0.0000 C   0  0  0  0  0  0  0  0  0  0  0  0
   -0.7500   -1.2990    0.0000 C   0  0  0  0  0  0  0  0  0  0  0  0
   -1.8373   -5.6601    0.0000 C   0  0  0  0  0  0  0  0  0  0  0  0
   -2.1491   -7.1273    0.0000 C   0  0  0  0  0  0  0  0  0  0  0  0
   -1.0344   -8.1310    0.0000 N   0  0  0  0  0  0  0  0  0  0  0  0
    0.3922   -7.6675    0.0000 C   0  0  0  0  0  0  0  0  0  0  0  0
    0.7040   -6.2002    0.0000 O   0  0  0  0  0  0  0  0  0  0  0  0
    1.5069   -8.6712    0.0000 C   0  0  0  0  0  0  0  0  0  0  0  0
    2.9335   -8.2076    0.0000 N   0  0  0  0  0  0  0  0  0  0  0  0
    3.3970   -6.7810    0.0000 N   0  0  0  0  0  0  0  0  0  0  0  0
    4.8970   -6.7810    0.0000 C   0  0  0  0  0  0  0  0  0  0  0  0
    5.7787   -5.5675    0.0000 C   0  0  0  0  0  0  0  0  0  0  0  0
    6.6604   -4.3540    0.0000 F   0  0  0  0  0  0  0  0  0  0  0  0
    6.9922   -6.4492    0.0000 F   0  0  0  0  0  0  0  0  0  0  0  0
    4.5652   -4.6858    0.0000 F   0  0  0  0  0  0  0  0  0  0  0  0
    5.3605   -8.2076    0.0000 C   0  0  0  0  0  0  0  0  0  0  0  0
    4.1470   -9.0893    0.0000 C   0  0  0  0  0  0  0  0  0  0  0  0
    4.1470  -10.5893    0.0000 C   0  0  0  0  0  0  0  0  0  0  0  0
  1  2  1  0
  2  3  1  0
  3  4  1  0
  4  5  2  0
  5  6  1  0
  6  7  2  0
  7  8  1  0
  8  9  2  0
  8 10  1  0
 10 11  2  0
 11 12  1  0
 12 13  1  0
 13 14  1  0
 13 15  1  0
 12 16  1  0
 16 17  2  0
 17 18  1  0
 18 19  2  0
 19 20  1  0
 20 21  2  0
  7 22  1  0
 22 23  2  0
 23 24  1  0
 24 25  1  0
 25 26  2  0
 25 27  1  0
 27 28  1  0
 28 29  1  0
 29 30  2  0
 30 31  1  0
 31 32  1  0
 31 33  1  0
 31 34  1  0
 30 35  1  0
 35 36  2  0
 36 37  1  0
 23  4  1  0
 36 28  1  0
 21 10  1  0
 21 16  1  0
M  END
>  <Compound_ID>  (66) 
CHEMBL3671397

>  <Molecule Name>  (66) 
nan

>  <Molecular Weight>  (66) 
515.5

>  <AlogP>  (66) 
4.2

>  <Smiles>  (66) 
CCOc1ncc(C(=O)c2cn(C(C)C)c3ncncc23)cc1NC(=O)Cn1nc(C(F)(F)F)cc1C

>  <Standard Type>  (66) 
IC50

>  <Standard Relation>  (66) 
'='

>  <Standard Units>  (66) 
nM

>  <Standard Value>  (66) 
47.9

>  <Assay ChEMBL ID>  (66) 
CHEMBL3887033

>  <Assay Description>  (66) 
Enzyme Assay: Isolated TRK Enzyme assays use the HTRF KinEASE-TK kit (Cisbio Cat# 62TK0PEJ) with recombinant His-tagged cytoplasmic domains of each TRK receptor sourced from Invitrogen (see table below). This activity-assay measures the phosphorylation of tyrosine residues within a substrate from the HTRF kit which has been validated by Cisbio for a variety of tyrosine kinases including the TRK receptors. Assay details: Target:TRKA; Invitrogen Cat# PV3144; Amino acids:aa 441-796; FAC enzyme:4nM; FAC ATP:40uM; Assay Reaction Time:35min.

>  <BAO Format ID>  (66) 
BAO_0000357

>  <BAO Label>  (66) 
single protein format

>  <Assay Organism>  (66) 
None

>  <Target ChEMBL ID>  (66) 
CHEMBL2815

>  <Target Name>  (66) 
Nerve growth factor receptor Trk-A

>  <Target Organism>  (66) 
Homo sapiens

>  <Target Type>  (66) 
SINGLE PROTEIN

>  <Document ChEMBL ID>  (66) 
CHEMBL3639348

>  <Source Description>  (66) 
BindingDB Database

>  <Document Journal>  (66) 
nan

>  <Document Year>  (66) 
2014.0

>  <Active>  (66) 
1.0

>  <bits>  (66) 
<rdkit.DataStructs.cDataStructs.ExplicitBitVect object at 0x00000159F5493370>

>  <Group>  (66) 
G2

$$$$

     RDKit          2D

 33 37  0  0  0  0  0  0  0  0999 V2000
   -6.9199   -4.5797    0.0000 O   0  0  0  0  0  0  0  0  0  0  0  0
   -7.2317   -6.0469    0.0000 C   0  0  0  0  0  0  0  0  0  0  0  0
   -8.6583   -6.5105    0.0000 C   0  0  0  0  0  0  0  0  0  0  0  0
   -9.7730   -5.5068    0.0000 C   0  0  0  0  0  0  0  0  0  0  0  0
   -9.4612   -4.0396    0.0000 C   0  0  0  0  0  0  0  0  0  0  0  0
  -10.5759   -3.0359    0.0000 C   0  0  0  0  0  0  0  0  0  0  0  0
  -12.0025   -3.4994    0.0000 C   0  0  0  0  0  0  0  0  0  0  0  0
  -13.1172   -2.4957    0.0000 Cl  0  0  0  0  0  0  0  0  0  0  0  0
  -12.3143   -4.9666    0.0000 C   0  0  0  0  0  0  0  0  0  0  0  0
  -11.1996   -5.9703    0.0000 N   0  0  0  0  0  0  0  0  0  0  0  0
   -6.1170   -7.0506    0.0000 N   0  0  0  0  0  0  0  0  0  0  0  0
   -4.6904   -6.5871    0.0000 C   0  0  0  0  0  0  0  0  0  0  0  0
   -3.5757   -7.5908    0.0000 C   0  0  0  0  0  0  0  0  0  0  0  0
   -2.1491   -7.1273    0.0000 N   0  0  0  0  0  0  0  0  0  0  0  0
   -1.8373   -5.6601    0.0000 C   0  0  0  0  0  0  0  0  0  0  0  0
   -2.9520   -4.6564    0.0000 C   0  0  0  0  0  0  0  0  0  0  0  0
   -2.6401   -3.1891    0.0000 C   0  0  0  0  0  0  0  0  0  0  0  0
   -3.7548   -2.1855    0.0000 O   0  0  0  0  0  0  0  0  0  0  0  0
   -1.2135   -2.7256    0.0000 C   0  0  0  0  0  0  0  0  0  0  0  0
   -0.0000   -3.6073    0.0000 C   0  0  0  0  0  0  0  0  0  0  0  0
    1.2135   -2.7256    0.0000 N   0  0  0  0  0  0  0  0  0  0  0  0
    2.6401   -3.1891    0.0000 C   0  0  0  0  0  0  0  0  0  0  0  0
    3.3443   -1.8647    0.0000 C   0  0  0  0  0  0  0  0  0  0  0  0
    4.8434   -1.8124    0.0000 O   0  0  0  0  0  0  0  0  0  0  0  0
    3.8221   -4.1126    0.0000 C   0  0  0  0  0  0  0  0  0  0  0  0
    2.4314   -4.6746    0.0000 C   0  0  0  0  0  0  0  0  0  0  0  0
    0.7500   -1.2990    0.0000 C   0  0  0  0  0  0  0  0  0  0  0  0
    1.5000    0.0000    0.0000 N   0  0  0  0  0  0  0  0  0  0  0  0
    0.7500    1.2990    0.0000 C   0  0  0  0  0  0  0  0  0  0  0  0
   -0.7500    1.2990    0.0000 N   0  0  0  0  0  0  0  0  0  0  0  0
   -1.5000    0.0000    0.0000 C   0  0  0  0  0  0  0  0  0  0  0  0
   -0.7500   -1.2990    0.0000 C   0  0  0  0  0  0  0  0  0  0  0  0
   -4.3786   -5.1199    0.0000 C   0  0  0  0  0  0  0  0  0  0  0  0
  1  2  2  0
  2  3  1  0
  3  4  1  0
  4  5  2  0
  5  6  1  0
  6  7  2  0
  7  8  1  0
  7  9  1  0
  9 10  2  0
  2 11  1  0
 11 12  1  0
 12 13  2  0
 13 14  1  0
 14 15  2  0
 15 16  1  0
 16 17  1  0
 17 18  2  0
 17 19  1  0
 19 20  2  0
 20 21  1  0
 21 22  1  0
 22 23  1  0
 23 24  1  0
 22 25  1  0
 25 26  1  0
 21 27  1  0
 27 28  2  0
 28 29  1  0
 29 30  2  0
 30 31  1  0
 31 32  2  0
 16 33  2  0
 10  4  1  0
 33 12  1  0
 32 19  1  0
 26 22  1  0
 32 27  1  0
M  END
>  <Compound_ID>  (67) 
CHEMBL3671401

>  <Molecule Name>  (67) 
nan

>  <Molecular Weight>  (67) 
462.9

>  <AlogP>  (67) 
2.77

>  <Smiles>  (67) 
O=C(Cc1ccc(Cl)cn1)Nc1cncc(C(=O)c2cn(C3(CO)CC3)c3ncncc23)c1

>  <Standard Type>  (67) 
IC50

>  <Standard Relation>  (67) 
'='

>  <Standard Units>  (67) 
nM

>  <Standard Value>  (67) 
11.4

>  <Assay ChEMBL ID>  (67) 
CHEMBL3887033

>  <Assay Description>  (67) 
Enzyme Assay: Isolated TRK Enzyme assays use the HTRF KinEASE-TK kit (Cisbio Cat# 62TK0PEJ) with recombinant His-tagged cytoplasmic domains of each TRK receptor sourced from Invitrogen (see table below). This activity-assay measures the phosphorylation of tyrosine residues within a substrate from the HTRF kit which has been validated by Cisbio for a variety of tyrosine kinases including the TRK receptors. Assay details: Target:TRKA; Invitrogen Cat# PV3144; Amino acids:aa 441-796; FAC enzyme:4nM; FAC ATP:40uM; Assay Reaction Time:35min.

>  <BAO Format ID>  (67) 
BAO_0000357

>  <BAO Label>  (67) 
single protein format

>  <Assay Organism>  (67) 
None

>  <Target ChEMBL ID>  (67) 
CHEMBL2815

>  <Target Name>  (67) 
Nerve growth factor receptor Trk-A

>  <Target Organism>  (67) 
Homo sapiens

>  <Target Type>  (67) 
SINGLE PROTEIN

>  <Document ChEMBL ID>  (67) 
CHEMBL3639348

>  <Source Description>  (67) 
BindingDB Database

>  <Document Journal>  (67) 
nan

>  <Document Year>  (67) 
2014.0

>  <Active>  (67) 
1.0

>  <bits>  (67) 
<rdkit.DataStructs.cDataStructs.ExplicitBitVect object at 0x00000159F5493300>

>  <Group>  (67) 
G2

$$$$

     RDKit          2D

 23 25  0  0  0  0  0  0  0  0999 V2000
   -6.0831  -10.2329    0.0000 N   0  0  0  0  0  0  0  0  0  0  0  0
   -4.9684   -9.2292    0.0000 C   0  0  0  0  0  0  0  0  0  0  0  0
   -3.5418   -9.6927    0.0000 O   0  0  0  0  0  0  0  0  0  0  0  0
   -5.2802   -7.7620    0.0000 N   0  0  0  0  0  0  0  0  0  0  0  0
   -4.1655   -6.7583    0.0000 C   0  0  0  0  0  0  0  0  0  0  0  0
   -2.6983   -7.0701    0.0000 S   0  0  0  0  0  0  0  0  0  0  0  0
   -1.9483   -5.7711    0.0000 N   0  0  0  0  0  0  0  0  0  0  0  0
   -2.9520   -4.6564    0.0000 C   0  0  0  0  0  0  0  0  0  0  0  0
   -2.6401   -3.1891    0.0000 S   0  0  0  0  0  0  0  0  0  0  0  0
   -1.2135   -2.7256    0.0000 C   0  0  0  0  0  0  0  0  0  0  0  0
   -0.0000   -3.6073    0.0000 C   0  0  0  0  0  0  0  0  0  0  0  0
    1.2135   -2.7256    0.0000 C   0  0  0  0  0  0  0  0  0  0  0  0
    0.7500   -1.2990    0.0000 C   0  0  0  0  0  0  0  0  0  0  0  0
    1.5000    0.0000    0.0000 C   0  0  0  0  0  0  0  0  0  0  0  0
    0.7500    1.2990    0.0000 C   0  0  0  0  0  0  0  0  0  0  0  0
    1.5000    2.5981    0.0000 Cl  0  0  0  0  0  0  0  0  0  0  0  0
   -0.7500    1.2990    0.0000 C   0  0  0  0  0  0  0  0  0  0  0  0
   -1.5000    0.0000    0.0000 C   0  0  0  0  0  0  0  0  0  0  0  0
   -0.7500   -1.2990    0.0000 C   0  0  0  0  0  0  0  0  0  0  0  0
   -4.3223   -5.2665    0.0000 C   0  0  0  0  0  0  0  0  0  0  0  0
   -5.6213   -4.5165    0.0000 C   0  0  0  0  0  0  0  0  0  0  0  0
   -5.6213   -3.0165    0.0000 N   0  0  0  0  0  0  0  0  0  0  0  0
   -6.9204   -5.2665    0.0000 O   0  0  0  0  0  0  0  0  0  0  0  0
  1  2  1  0
  2  3  2  0
  2  4  1  0
  4  5  1  0
  5  6  1  0
  6  7  1  0
  7  8  2  0
  8  9  1  0
  9 10  1  0
 10 11  1  0
 11 12  1  0
 12 13  1  0
 13 14  2  0
 14 15  1  0
 15 16  1  0
 15 17  2  0
 17 18  1  0
 18 19  2  0
  8 20  1  0
 20 21  1  0
 21 22  1  0
 21 23  2  0
 20  5  2  0
 19 10  1  0
 19 13  1  0
M  END
>  <Compound_ID>  (68) 
CHEMBL445660

>  <Molecule Name>  (68) 
nan

>  <Molecular Weight>  (68) 
368.87

>  <AlogP>  (68) 
3.17

>  <Smiles>  (68) 
NC(=O)Nc1snc(SC2CCc3cc(Cl)ccc32)c1C(N)=O

>  <Standard Type>  (68) 
IC50

>  <Standard Relation>  (68) 
'='

>  <Standard Units>  (68) 
nM

>  <Standard Value>  (68) 
10.0

>  <Assay ChEMBL ID>  (68) 
CHEMBL867240

>  <Assay Description>  (68) 
Inhibition of TrkA kinase

>  <BAO Format ID>  (68) 
BAO_0000357

>  <BAO Label>  (68) 
single protein format

>  <Assay Organism>  (68) 
Homo sapiens

>  <Target ChEMBL ID>  (68) 
CHEMBL2815

>  <Target Name>  (68) 
Nerve growth factor receptor Trk-A

>  <Target Organism>  (68) 
Homo sapiens

>  <Target Type>  (68) 
SINGLE PROTEIN

>  <Document ChEMBL ID>  (68) 
CHEMBL1138090

>  <Source Description>  (68) 
Scientific Literature

>  <Document Journal>  (68) 
Bioorg Med Chem Lett

>  <Document Year>  (68) 
2006.0

>  <Active>  (68) 
1.0

>  <bits>  (68) 
<rdkit.DataStructs.cDataStructs.ExplicitBitVect object at 0x00000159F5493220>

>  <Group>  (68) 
G2

$$$$

     RDKit          2D

 42 47  0  0  0  0  0  0  0  0999 V2000
   -8.5978  -10.3610    0.0000 C   0  0  0  0  0  0  0  0  0  0  0  0
   -8.7546   -8.8692    0.0000 C   0  0  0  0  0  0  0  0  0  0  0  0
   -7.6399   -7.8655    0.0000 C   0  0  0  0  0  0  0  0  0  0  0  0
   -8.2500   -6.4952    0.0000 N   0  0  0  0  0  0  0  0  0  0  0  0
   -7.5000   -5.1962    0.0000 C   0  0  0  0  0  0  0  0  0  0  0  0
   -6.0000   -5.1962    0.0000 C   0  0  0  0  0  0  0  0  0  0  0  0
   -5.2500   -3.8971    0.0000 C   0  0  0  0  0  0  0  0  0  0  0  0
   -3.7500   -3.8971    0.0000 C   0  0  0  0  0  0  0  0  0  0  0  0
   -3.0000   -2.5981    0.0000 O   0  0  0  0  0  0  0  0  0  0  0  0
   -3.0000   -5.1962    0.0000 N   0  0  0  0  0  0  0  0  0  0  0  0
   -1.5000   -5.1962    0.0000 C   0  0  0  0  0  0  0  0  0  0  0  0
   -0.7500   -6.4952    0.0000 C   0  0  0  0  0  0  0  0  0  0  0  0
    0.7500   -6.4952    0.0000 C   0  0  0  0  0  0  0  0  0  0  0  0
    1.5000   -5.1962    0.0000 C   0  0  0  0  0  0  0  0  0  0  0  0
    0.7500   -3.8971    0.0000 C   0  0  0  0  0  0  0  0  0  0  0  0
    1.5000   -2.5981    0.0000 N   0  0  0  0  0  0  0  0  0  0  0  0
    0.7500   -1.2990    0.0000 C   0  0  0  0  0  0  0  0  0  0  0  0
    1.5000    0.0000    0.0000 C   0  0  0  0  0  0  0  0  0  0  0  0
    0.7500    1.2990    0.0000 C   0  0  0  0  0  0  0  0  0  0  0  0
   -0.7500    1.2990    0.0000 C   0  0  0  0  0  0  0  0  0  0  0  0
   -1.5000    0.0000    0.0000 C   0  0  0  0  0  0  0  0  0  0  0  0
   -0.7500   -1.2990    0.0000 C   0  0  0  0  0  0  0  0  0  0  0  0
   -2.9672    0.3119    0.0000 N   0  0  0  0  0  0  0  0  0  0  0  0
   -3.1240    1.8037    0.0000 C   0  0  0  0  0  0  0  0  0  0  0  0
   -4.4231    2.5537    0.0000 O   0  0  0  0  0  0  0  0  0  0  0  0
   -1.7537    2.4138    0.0000 C   0  0  0  0  0  0  0  0  0  0  0  0
   -1.4418    3.8810    0.0000 C   0  0  0  0  0  0  0  0  0  0  0  0
   -2.5565    4.8847    0.0000 C   0  0  0  0  0  0  0  0  0  0  0  0
   -4.0238    4.5728    0.0000 C   0  0  0  0  0  0  0  0  0  0  0  0
   -4.7738    5.8718    0.0000 C   0  0  0  0  0  0  0  0  0  0  0  0
   -3.7701    6.9866    0.0000 C   0  0  0  0  0  0  0  0  0  0  0  0
   -2.3998    6.3765    0.0000 N   0  0  0  0  0  0  0  0  0  0  0  0
   -0.7500   -3.8971    0.0000 C   0  0  0  0  0  0  0  0  0  0  0  0
   -6.0000   -2.5981    0.0000 C   0  0  0  0  0  0  0  0  0  0  0  0
   -7.5000   -2.5981    0.0000 C   0  0  0  0  0  0  0  0  0  0  0  0
   -8.2500   -1.2990    0.0000 C   0  0  0  0  0  0  0  0  0  0  0  0
   -9.0000    0.0000    0.0000 F   0  0  0  0  0  0  0  0  0  0  0  0
   -6.9510   -0.5490    0.0000 F   0  0  0  0  0  0  0  0  0  0  0  0
   -9.5490   -2.0490    0.0000 F   0  0  0  0  0  0  0  0  0  0  0  0
   -8.2500   -3.8971    0.0000 C   0  0  0  0  0  0  0  0  0  0  0  0
   -9.7418   -6.6520    0.0000 C   0  0  0  0  0  0  0  0  0  0  0  0
  -10.0537   -8.1192    0.0000 N   0  0  0  0  0  0  0  0  0  0  0  0
  1  2  1  0
  2  3  2  0
  3  4  1  0
  4  5  1  0
  5  6  2  0
  6  7  1  0
  7  8  1  0
  8  9  2  0
  8 10  1  0
 10 11  1  0
 11 12  2  0
 12 13  1  0
 13 14  2  0
 14 15  1  0
 15 16  1  0
 16 17  1  0
 17 18  2  0
 18 19  1  0
 19 20  2  0
 20 21  1  0
 21 22  2  0
 21 23  1  0
 23 24  1  0
 24 25  2  0
 24 26  1  0
 26 27  2  0
 27 28  1  0
 28 29  2  0
 29 30  1  0
 30 31  2  0
 31 32  1  0
 15 33  2  0
  7 34  2  0
 34 35  1  0
 35 36  1  0
 36 37  1  0
 36 38  1  0
 36 39  1  0
 35 40  2  0
  4 41  1  0
 41 42  2  0
 42  2  1  0
 40  5  1  0
 33 11  1  0
 22 17  1  0
 32 28  1  0
 26 20  1  0
M  END
>  <Compound_ID>  (69) 
CHEMBL2037209

>  <Molecule Name>  (69) 
nan

>  <Molecular Weight>  (69) 
568.56

>  <AlogP>  (69) 
7.02

>  <Smiles>  (69) 
Cc1cn(-c2cc(C(=O)Nc3cccc(Nc4ccc5c(c4)NC(=O)/C5=C\c4ccc[nH]4)c3)cc(C(F)(F)F)c2)cn1

>  <Standard Type>  (69) 
IC50

>  <Standard Relation>  (69) 
'='

>  <Standard Units>  (69) 
nM

>  <Standard Value>  (69) 
7.0

>  <Assay ChEMBL ID>  (69) 
CHEMBL2038860

>  <Assay Description>  (69) 
Inhibition of TRKA by HTRF assay

>  <BAO Format ID>  (69) 
BAO_0000357

>  <BAO Label>  (69) 
single protein format

>  <Assay Organism>  (69) 
None

>  <Target ChEMBL ID>  (69) 
CHEMBL2815

>  <Target Name>  (69) 
Nerve growth factor receptor Trk-A

>  <Target Organism>  (69) 
Homo sapiens

>  <Target Type>  (69) 
SINGLE PROTEIN

>  <Document ChEMBL ID>  (69) 
CHEMBL2034853

>  <Source Description>  (69) 
Scientific Literature

>  <Document Journal>  (69) 
ACS Med Chem Lett

>  <Document Year>  (69) 
2012.0

>  <Active>  (69) 
1.0

>  <bits>  (69) 
<rdkit.DataStructs.cDataStructs.ExplicitBitVect object at 0x00000159F5490740>

>  <Group>  (69) 
G2

$$$$

     RDKit          2D

 39 44  0  0  0  0  0  0  0  0999 V2000
   -7.9882  -15.8540    0.0000 C   0  0  0  0  0  0  0  0  0  0  0  0
   -6.5616  -15.3904    0.0000 O   0  0  0  0  0  0  0  0  0  0  0  0
   -6.2498  -13.9232    0.0000 C   0  0  0  0  0  0  0  0  0  0  0  0
   -7.3645  -12.9195    0.0000 C   0  0  0  0  0  0  0  0  0  0  0  0
   -7.0526  -11.4523    0.0000 C   0  0  0  0  0  0  0  0  0  0  0  0
   -5.6260  -10.9888    0.0000 C   0  0  0  0  0  0  0  0  0  0  0  0
   -5.3142   -9.5216    0.0000 C   0  0  0  0  0  0  0  0  0  0  0  0
   -3.8876   -9.0580    0.0000 O   0  0  0  0  0  0  0  0  0  0  0  0
   -3.5757   -7.5908    0.0000 C   0  0  0  0  0  0  0  0  0  0  0  0
   -2.1491   -7.1273    0.0000 C   0  0  0  0  0  0  0  0  0  0  0  0
   -1.8373   -5.6601    0.0000 C   0  0  0  0  0  0  0  0  0  0  0  0
   -2.9520   -4.6564    0.0000 C   0  0  0  0  0  0  0  0  0  0  0  0
   -2.6401   -3.1891    0.0000 C   0  0  0  0  0  0  0  0  0  0  0  0
   -1.2135   -2.7256    0.0000 N   0  0  0  0  0  0  0  0  0  0  0  0
   -0.0000   -3.6073    0.0000 C   0  0  0  0  0  0  0  0  0  0  0  0
    1.2135   -2.7256    0.0000 N   0  0  0  0  0  0  0  0  0  0  0  0
    0.7500   -1.2990    0.0000 C   0  0  0  0  0  0  0  0  0  0  0  0
    1.5000    0.0000    0.0000 C   0  0  0  0  0  0  0  0  0  0  0  0
    0.7500    1.2990    0.0000 C   0  0  0  0  0  0  0  0  0  0  0  0
    1.5000    2.5981    0.0000 N   0  0  0  0  0  0  0  0  0  0  0  0
    0.8899    3.9684    0.0000 C   0  0  0  0  0  0  0  0  0  0  0  0
    2.0046    4.9721    0.0000 C   0  0  0  0  0  0  0  0  0  0  0  0
    1.8478    6.4639    0.0000 C   0  0  0  0  0  0  0  0  0  0  0  0
    3.0613    7.3456    0.0000 C   0  0  0  0  0  0  0  0  0  0  0  0
    2.9046    8.8373    0.0000 C   0  0  0  0  0  0  0  0  0  0  0  0
    1.5342    9.4474    0.0000 C   0  0  0  0  0  0  0  0  0  0  0  0
    0.3207    8.5658    0.0000 N   0  0  0  0  0  0  0  0  0  0  0  0
    0.4775    7.0740    0.0000 C   0  0  0  0  0  0  0  0  0  0  0  0
    3.3037    4.2221    0.0000 N   0  0  0  0  0  0  0  0  0  0  0  0
    2.9918    2.7549    0.0000 N   0  0  0  0  0  0  0  0  0  0  0  0
   -0.7500    1.2990    0.0000 C   0  0  0  0  0  0  0  0  0  0  0  0
   -1.5000    0.0000    0.0000 N   0  0  0  0  0  0  0  0  0  0  0  0
   -0.7500   -1.2990    0.0000 C   0  0  0  0  0  0  0  0  0  0  0  0
   -4.3786   -5.1199    0.0000 C   0  0  0  0  0  0  0  0  0  0  0  0
   -4.6904   -6.5871    0.0000 C   0  0  0  0  0  0  0  0  0  0  0  0
   -6.1170   -7.0506    0.0000 O   0  0  0  0  0  0  0  0  0  0  0  0
   -7.2317   -6.0469    0.0000 C   0  0  0  0  0  0  0  0  0  0  0  0
   -4.5113  -11.9925    0.0000 C   0  0  0  0  0  0  0  0  0  0  0  0
   -4.8232  -13.4597    0.0000 N   0  0  0  0  0  0  0  0  0  0  0  0
  1  2  1  0
  2  3  1  0
  3  4  2  0
  4  5  1  0
  5  6  2  0
  6  7  1  0
  7  8  1  0
  8  9  1  0
  9 10  2  0
 10 11  1  0
 11 12  2  0
 12 13  1  0
 13 14  1  0
 14 15  1  0
 15 16  2  0
 16 17  1  0
 17 18  2  0
 18 19  1  0
 19 20  1  0
 20 21  1  0
 21 22  2  0
 22 23  1  0
 23 24  1  0
 24 25  1  0
 25 26  1  0
 26 27  1  0
 27 28  1  0
 22 29  1  0
 29 30  2  0
 19 31  2  0
 31 32  1  0
 32 33  2  0
 12 34  1  0
 34 35  2  0
 35 36  1  0
 36 37  1  0
  6 38  1  0
 38 39  2  0
 39  3  1  0
 35  9  1  0
 33 14  1  0
 33 17  1  0
 30 20  1  0
 28 23  1  0
M  END
>  <Compound_ID>  (70) 
CHEMBL3673468

>  <Molecule Name>  (70) 
nan

>  <Molecular Weight>  (70) 
526.6

>  <AlogP>  (70) 
3.52

>  <Smiles>  (70) 
COc1ccc(COc2ccc(Cn3cnc4cc(-n5cc(C6CCCNC6)nn5)cnc43)cc2OC)cn1

>  <Standard Type>  (70) 
IC50

>  <Standard Relation>  (70) 
'='

>  <Standard Units>  (70) 
nM

>  <Standard Value>  (70) 
32.0

>  <Assay ChEMBL ID>  (70) 
CHEMBL3887112

>  <Assay Description>  (70) 
Inhibition Assay: Reagents and consumables were purchased from Sigma Aldrich, Carna Biosciences, or Caliper Life Sciences. All assay reaction conditions for IC50 determinations were within the linear range with respect to time and enzyme concentration. In a 384 well polypropylene plate, TrkA (0.4 nM, Carna 08-186) was pre-incubated in a 100 mM Hepes-NaOH pH 7.5 buffer containing 0.01% Triton X-100, 10 mM MgCl2, 0.1% BSA, 1 mM DTT, 10 uM sodium orthovanadate and 10 uM beta-glycerophosphate and compound with a concentration of 2.5% DMSO for 15 minutes at room temperature. The reaction was initiated with an equal volume of peptide substrate (Caliper Life Sciences catalog no. 760430) and ATP in the aforementioned buffer. The final concentrations in the reaction were 200 pM TrkA, 1.5 uM peptide substrate and 55 uM ATP (ATP Km). The reaction was incubated at room temperature for 180 minutes and terminated with a buffer containing excess EDTA (100 mM Hepes-NaOH pH 7.5, 0.02% Brij.

>  <BAO Format ID>  (70) 
BAO_0000357

>  <BAO Label>  (70) 
single protein format

>  <Assay Organism>  (70) 
None

>  <Target ChEMBL ID>  (70) 
CHEMBL2815

>  <Target Name>  (70) 
Nerve growth factor receptor Trk-A

>  <Target Organism>  (70) 
Homo sapiens

>  <Target Type>  (70) 
SINGLE PROTEIN

>  <Document ChEMBL ID>  (70) 
CHEMBL3638818

>  <Source Description>  (70) 
BindingDB Database

>  <Document Journal>  (70) 
nan

>  <Document Year>  (70) 
2015.0

>  <Active>  (70) 
1.0

>  <bits>  (70) 
<rdkit.DataStructs.cDataStructs.ExplicitBitVect object at 0x00000159F54931B0>

>  <Group>  (70) 
G2

$$$$

     RDKit          2D

 34 37  0  0  0  0  0  0  0  0999 V2000
   -2.9520   -4.6564    0.0000 C   0  0  0  0  0  0  0  0  0  0  0  0
   -2.6401   -3.1891    0.0000 C   0  0  0  0  0  0  0  0  0  0  0  0
   -3.7548   -2.1855    0.0000 C   0  0  0  0  0  0  0  0  0  0  0  0
   -1.2135   -2.7256    0.0000 N   0  0  0  0  0  0  0  0  0  0  0  0
   -0.0000   -3.6073    0.0000 C   0  0  0  0  0  0  0  0  0  0  0  0
    1.2135   -2.7256    0.0000 C   0  0  0  0  0  0  0  0  0  0  0  0
    2.6401   -3.1891    0.0000 C   0  0  0  0  0  0  0  0  0  0  0  0
    3.7548   -2.1855    0.0000 O   0  0  0  0  0  0  0  0  0  0  0  0
    2.9520   -4.6564    0.0000 C   0  0  0  0  0  0  0  0  0  0  0  0
    1.8373   -5.6601    0.0000 C   0  0  0  0  0  0  0  0  0  0  0  0
    2.1491   -7.1273    0.0000 N   0  0  0  0  0  0  0  0  0  0  0  0
    3.5757   -7.5908    0.0000 C   0  0  0  0  0  0  0  0  0  0  0  0
    4.6904   -6.5871    0.0000 C   0  0  0  0  0  0  0  0  0  0  0  0
    6.1170   -7.0506    0.0000 N   0  0  0  0  0  0  0  0  0  0  0  0
    6.4289   -8.5179    0.0000 C   0  0  0  0  0  0  0  0  0  0  0  0
    5.3142   -9.5216    0.0000 O   0  0  0  0  0  0  0  0  0  0  0  0
    7.8555   -8.9814    0.0000 C   0  0  0  0  0  0  0  0  0  0  0  0
    8.1673  -10.4486    0.0000 C   0  0  0  0  0  0  0  0  0  0  0  0
    7.0526  -11.4523    0.0000 C   0  0  0  0  0  0  0  0  0  0  0  0
    7.3645  -12.9195    0.0000 C   0  0  0  0  0  0  0  0  0  0  0  0
    8.7911  -13.3831    0.0000 C   0  0  0  0  0  0  0  0  0  0  0  0
    9.1029  -14.8503    0.0000 C   0  0  0  0  0  0  0  0  0  0  0  0
    9.4148  -16.3175    0.0000 F   0  0  0  0  0  0  0  0  0  0  0  0
    7.6357  -15.1621    0.0000 F   0  0  0  0  0  0  0  0  0  0  0  0
   10.5702  -14.5384    0.0000 F   0  0  0  0  0  0  0  0  0  0  0  0
    9.9058  -12.3794    0.0000 C   0  0  0  0  0  0  0  0  0  0  0  0
    9.5939  -10.9121    0.0000 C   0  0  0  0  0  0  0  0  0  0  0  0
    4.3786   -5.1199    0.0000 C   0  0  0  0  0  0  0  0  0  0  0  0
    0.7500   -1.2990    0.0000 C   0  0  0  0  0  0  0  0  0  0  0  0
    1.5000    0.0000    0.0000 C   0  0  0  0  0  0  0  0  0  0  0  0
    0.7500    1.2990    0.0000 N   0  0  0  0  0  0  0  0  0  0  0  0
   -0.7500    1.2990    0.0000 C   0  0  0  0  0  0  0  0  0  0  0  0
   -1.5000    0.0000    0.0000 N   0  0  0  0  0  0  0  0  0  0  0  0
   -0.7500   -1.2990    0.0000 C   0  0  0  0  0  0  0  0  0  0  0  0
  1  2  1  0
  2  3  1  0
  2  4  1  0
  4  5  1  0
  5  6  2  0
  6  7  1  0
  7  8  2  0
  7  9  1  0
  9 10  2  0
 10 11  1  0
 11 12  2  0
 12 13  1  0
 13 14  1  0
 14 15  1  0
 15 16  2  0
 15 17  1  0
 17 18  1  0
 18 19  2  0
 19 20  1  0
 20 21  2  0
 21 22  1  0
 22 23  1  0
 22 24  1  0
 22 25  1  0
 21 26  1  0
 26 27  2  0
 13 28  2  0
  6 29  1  0
 29 30  2  0
 30 31  1  0
 31 32  2  0
 32 33  1  0
 33 34  2  0
 34  4  1  0
 28  9  1  0
 34 29  1  0
 27 18  1  0
M  END
>  <Compound_ID>  (71) 
CHEMBL3661462

>  <Molecule Name>  (71) 
nan

>  <Molecular Weight>  (71) 
467.45

>  <AlogP>  (71) 
4.84

>  <Smiles>  (71) 
CC(C)n1cc(C(=O)c2cncc(NC(=O)Cc3ccc(C(F)(F)F)cc3)c2)c2cncnc21

>  <Standard Type>  (71) 
IC50

>  <Standard Relation>  (71) 
'='

>  <Standard Units>  (71) 
nM

>  <Standard Value>  (71) 
4.15

>  <Assay ChEMBL ID>  (71) 
CHEMBL3887033

>  <Assay Description>  (71) 
Enzyme Assay: Isolated TRK Enzyme assays use the HTRF KinEASE-TK kit (Cisbio Cat# 62TK0PEJ) with recombinant His-tagged cytoplasmic domains of each TRK receptor sourced from Invitrogen (see table below). This activity-assay measures the phosphorylation of tyrosine residues within a substrate from the HTRF kit which has been validated by Cisbio for a variety of tyrosine kinases including the TRK receptors. Assay details: Target:TRKA; Invitrogen Cat# PV3144; Amino acids:aa 441-796; FAC enzyme:4nM; FAC ATP:40uM; Assay Reaction Time:35min.

>  <BAO Format ID>  (71) 
BAO_0000357

>  <BAO Label>  (71) 
single protein format

>  <Assay Organism>  (71) 
None

>  <Target ChEMBL ID>  (71) 
CHEMBL2815

>  <Target Name>  (71) 
Nerve growth factor receptor Trk-A

>  <Target Organism>  (71) 
Homo sapiens

>  <Target Type>  (71) 
SINGLE PROTEIN

>  <Document ChEMBL ID>  (71) 
CHEMBL3639348

>  <Source Description>  (71) 
BindingDB Database

>  <Document Journal>  (71) 
nan

>  <Document Year>  (71) 
2014.0

>  <Active>  (71) 
1.0

>  <bits>  (71) 
<rdkit.DataStructs.cDataStructs.ExplicitBitVect object at 0x00000159F54929D0>

>  <Group>  (71) 
G2

$$$$

     RDKit          2D

 34 37  0  0  0  0  0  0  0  0999 V2000
  -14.0921   -2.9925    0.0000 C   0  0  0  0  0  0  0  0  0  0  0  0
  -13.4820   -4.3628    0.0000 C   0  0  0  0  0  0  0  0  0  0  0  0
  -14.3637   -5.5763    0.0000 C   0  0  0  0  0  0  0  0  0  0  0  0
  -11.9903   -4.5196    0.0000 C   0  0  0  0  0  0  0  0  0  0  0  0
  -11.2403   -5.8186    0.0000 C   0  0  0  0  0  0  0  0  0  0  0  0
   -9.7730   -5.5068    0.0000 N   0  0  0  0  0  0  0  0  0  0  0  0
   -8.6583   -6.5105    0.0000 C   0  0  0  0  0  0  0  0  0  0  0  0
   -7.2317   -6.0469    0.0000 C   0  0  0  0  0  0  0  0  0  0  0  0
   -6.9199   -4.5797    0.0000 O   0  0  0  0  0  0  0  0  0  0  0  0
   -6.1170   -7.0506    0.0000 N   0  0  0  0  0  0  0  0  0  0  0  0
   -4.6904   -6.5871    0.0000 C   0  0  0  0  0  0  0  0  0  0  0  0
   -3.5757   -7.5908    0.0000 C   0  0  0  0  0  0  0  0  0  0  0  0
   -2.1491   -7.1273    0.0000 N   0  0  0  0  0  0  0  0  0  0  0  0
   -1.8373   -5.6601    0.0000 C   0  0  0  0  0  0  0  0  0  0  0  0
   -2.9520   -4.6564    0.0000 C   0  0  0  0  0  0  0  0  0  0  0  0
   -2.6401   -3.1891    0.0000 C   0  0  0  0  0  0  0  0  0  0  0  0
   -3.7548   -2.1855    0.0000 O   0  0  0  0  0  0  0  0  0  0  0  0
   -1.2135   -2.7256    0.0000 C   0  0  0  0  0  0  0  0  0  0  0  0
   -0.0000   -3.6073    0.0000 C   0  0  0  0  0  0  0  0  0  0  0  0
    1.2135   -2.7256    0.0000 N   0  0  0  0  0  0  0  0  0  0  0  0
    2.6401   -3.1891    0.0000 C   0  0  0  0  0  0  0  0  0  0  0  0
    2.1766   -4.6157    0.0000 C   0  0  0  0  0  0  0  0  0  0  0  0
    3.1036   -1.7626    0.0000 C   0  0  0  0  0  0  0  0  0  0  0  0
    4.0667   -3.6527    0.0000 C   0  0  0  0  0  0  0  0  0  0  0  0
    5.1814   -2.6490    0.0000 O   0  0  0  0  0  0  0  0  0  0  0  0
    0.7500   -1.2990    0.0000 C   0  0  0  0  0  0  0  0  0  0  0  0
    1.5000    0.0000    0.0000 N   0  0  0  0  0  0  0  0  0  0  0  0
    0.7500    1.2990    0.0000 C   0  0  0  0  0  0  0  0  0  0  0  0
   -0.7500    1.2990    0.0000 N   0  0  0  0  0  0  0  0  0  0  0  0
   -1.5000    0.0000    0.0000 C   0  0  0  0  0  0  0  0  0  0  0  0
   -0.7500   -1.2990    0.0000 C   0  0  0  0  0  0  0  0  0  0  0  0
   -4.3786   -5.1199    0.0000 C   0  0  0  0  0  0  0  0  0  0  0  0
   -9.6162   -4.0150    0.0000 N   0  0  0  0  0  0  0  0  0  0  0  0
  -10.9866   -3.4049    0.0000 N   0  0  0  0  0  0  0  0  0  0  0  0
  1  2  1  0
  2  3  1  0
  2  4  1  0
  4  5  2  0
  5  6  1  0
  6  7  1  0
  7  8  1  0
  8  9  2  0
  8 10  1  0
 10 11  1  0
 11 12  2  0
 12 13  1  0
 13 14  2  0
 14 15  1  0
 15 16  1  0
 16 17  2  0
 16 18  1  0
 18 19  2  0
 19 20  1  0
 20 21  1  0
 21 22  1  0
 21 23  1  0
 21 24  1  0
 24 25  1  0
 20 26  1  0
 26 27  2  0
 27 28  1  0
 28 29  2  0
 29 30  1  0
 30 31  2  0
 15 32  2  0
  6 33  1  0
 33 34  2  0
 34  4  1  0
 32 11  1  0
 31 18  1  0
 31 26  1  0
M  END
>  <Compound_ID>  (72) 
CHEMBL3661617

>  <Molecule Name>  (72) 
nan

>  <Molecular Weight>  (72) 
462.51

>  <AlogP>  (72) 
2.14

>  <Smiles>  (72) 
CC(C)c1cn(CC(=O)Nc2cncc(C(=O)c3cn(C(C)(C)CO)c4ncncc34)c2)nn1

>  <Standard Type>  (72) 
IC50

>  <Standard Relation>  (72) 
'='

>  <Standard Units>  (72) 
nM

>  <Standard Value>  (72) 
12.5

>  <Assay ChEMBL ID>  (72) 
CHEMBL3887033

>  <Assay Description>  (72) 
Enzyme Assay: Isolated TRK Enzyme assays use the HTRF KinEASE-TK kit (Cisbio Cat# 62TK0PEJ) with recombinant His-tagged cytoplasmic domains of each TRK receptor sourced from Invitrogen (see table below). This activity-assay measures the phosphorylation of tyrosine residues within a substrate from the HTRF kit which has been validated by Cisbio for a variety of tyrosine kinases including the TRK receptors. Assay details: Target:TRKA; Invitrogen Cat# PV3144; Amino acids:aa 441-796; FAC enzyme:4nM; FAC ATP:40uM; Assay Reaction Time:35min.

>  <BAO Format ID>  (72) 
BAO_0000357

>  <BAO Label>  (72) 
single protein format

>  <Assay Organism>  (72) 
None

>  <Target ChEMBL ID>  (72) 
CHEMBL2815

>  <Target Name>  (72) 
Nerve growth factor receptor Trk-A

>  <Target Organism>  (72) 
Homo sapiens

>  <Target Type>  (72) 
SINGLE PROTEIN

>  <Document ChEMBL ID>  (72) 
CHEMBL3639348

>  <Source Description>  (72) 
BindingDB Database

>  <Document Journal>  (72) 
nan

>  <Document Year>  (72) 
2014.0

>  <Active>  (72) 
1.0

>  <bits>  (72) 
<rdkit.DataStructs.cDataStructs.ExplicitBitVect object at 0x00000159F54927A0>

>  <Group>  (72) 
G2

$$$$

     RDKit          2D

 24 27  0  0  0  0  0  0  0  0999 V2000
    3.0000   -7.7942    0.0000 C   0  0  0  0  0  0  0  0  0  0  0  0
    3.7500   -6.4952    0.0000 O   0  0  0  0  0  0  0  0  0  0  0  0
    3.0000   -5.1962    0.0000 C   0  0  0  0  0  0  0  0  0  0  0  0
    1.5000   -5.1962    0.0000 C   0  0  0  0  0  0  0  0  0  0  0  0
    0.7500   -3.8971    0.0000 C   0  0  0  0  0  0  0  0  0  0  0  0
    1.5000   -2.5981    0.0000 C   0  0  0  0  0  0  0  0  0  0  0  0
    0.7500   -1.2990    0.0000 C   0  0  0  0  0  0  0  0  0  0  0  0
    1.5000    0.0000    0.0000 C   0  0  0  0  0  0  0  0  0  0  0  0
    0.7500    1.2990    0.0000 N   0  0  0  0  0  0  0  0  0  0  0  0
   -0.7500    1.2990    0.0000 C   0  0  0  0  0  0  0  0  0  0  0  0
   -1.7537    2.4138    0.0000 N   0  0  0  0  0  0  0  0  0  0  0  0
   -3.1240    1.8037    0.0000 C   0  0  0  0  0  0  0  0  0  0  0  0
   -2.9672    0.3119    0.0000 C   0  0  0  0  0  0  0  0  0  0  0  0
   -4.0819   -0.6918    0.0000 C   0  0  0  0  0  0  0  0  0  0  0  0
   -5.5085   -0.2283    0.0000 C   0  0  0  0  0  0  0  0  0  0  0  0
   -6.6232   -1.2320    0.0000 C   0  0  0  0  0  0  0  0  0  0  0  0
   -6.3114   -2.6992    0.0000 N   0  0  0  0  0  0  0  0  0  0  0  0
   -4.8848   -3.1627    0.0000 C   0  0  0  0  0  0  0  0  0  0  0  0
   -3.7701   -2.1590    0.0000 C   0  0  0  0  0  0  0  0  0  0  0  0
   -1.5000    0.0000    0.0000 C   0  0  0  0  0  0  0  0  0  0  0  0
   -0.7500   -1.2990    0.0000 C   0  0  0  0  0  0  0  0  0  0  0  0
    3.0000   -2.5981    0.0000 C   0  0  0  0  0  0  0  0  0  0  0  0
    3.7500   -3.8971    0.0000 C   0  0  0  0  0  0  0  0  0  0  0  0
    5.2500   -3.8971    0.0000 N   0  0  0  0  0  0  0  0  0  0  0  0
  1  2  1  0
  2  3  1  0
  3  4  2  0
  4  5  1  0
  5  6  2  0
  6  7  1  0
  7  8  2  0
  8  9  1  0
  9 10  2  0
 10 11  1  0
 11 12  1  0
 12 13  2  0
 13 14  1  0
 14 15  2  0
 15 16  1  0
 16 17  2  0
 17 18  1  0
 18 19  2  0
 13 20  1  0
 20 21  2  0
  6 22  1  0
 22 23  2  0
 23 24  1  0
 23  3  1  0
 21  7  1  0
 20 10  1  0
 19 14  1  0
M  END
>  <Compound_ID>  (73) 
CHEMBL2152275

>  <Molecule Name>  (73) 
nan

>  <Molecular Weight>  (73) 
316.36

>  <AlogP>  (73) 
3.88

>  <Smiles>  (73) 
COc1ccc(-c2cnc3[nH]cc(-c4ccncc4)c3c2)cc1N

>  <Standard Type>  (73) 
IC50

>  <Standard Relation>  (73) 
'='

>  <Standard Units>  (73) 
nM

>  <Standard Value>  (73) 
33.2

>  <Assay ChEMBL ID>  (73) 
CHEMBL2157053

>  <Assay Description>  (73) 
Inhibition of TRKA assessed as [gamma33P]ATP incorporation into substrate

>  <BAO Format ID>  (73) 
BAO_0000357

>  <BAO Label>  (73) 
single protein format

>  <Assay Organism>  (73) 
None

>  <Target ChEMBL ID>  (73) 
CHEMBL2815

>  <Target Name>  (73) 
Nerve growth factor receptor Trk-A

>  <Target Organism>  (73) 
Homo sapiens

>  <Target Type>  (73) 
SINGLE PROTEIN

>  <Document ChEMBL ID>  (73) 
CHEMBL2150859

>  <Source Description>  (73) 
Scientific Literature

>  <Document Journal>  (73) 
J Med Chem

>  <Document Year>  (73) 
2012.0

>  <Active>  (73) 
1.0

>  <bits>  (73) 
<rdkit.DataStructs.cDataStructs.ExplicitBitVect object at 0x00000159F5492730>

>  <Group>  (73) 
G2

$$$$

     RDKit          2D

 30 34  0  0  0  0  0  0  0  0999 V2000
    0.7500   -6.4952    0.0000 N   0  0  0  0  0  0  0  0  0  0  0  0
    1.5000   -5.1962    0.0000 C   0  0  0  0  0  0  0  0  0  0  0  0
    0.7500   -3.8971    0.0000 C   0  0  0  0  0  0  0  0  0  0  0  0
    1.5000   -2.5981    0.0000 C   0  0  0  0  0  0  0  0  0  0  0  0
    0.7500   -1.2990    0.0000 C   0  0  0  0  0  0  0  0  0  0  0  0
    1.5000    0.0000    0.0000 C   0  0  0  0  0  0  0  0  0  0  0  0
    0.7500    1.2990    0.0000 N   0  0  0  0  0  0  0  0  0  0  0  0
   -0.7500    1.2990    0.0000 C   0  0  0  0  0  0  0  0  0  0  0  0
   -1.7537    2.4138    0.0000 N   0  0  0  0  0  0  0  0  0  0  0  0
   -3.1240    1.8037    0.0000 C   0  0  0  0  0  0  0  0  0  0  0  0
   -2.9672    0.3119    0.0000 C   0  0  0  0  0  0  0  0  0  0  0  0
   -4.0819   -0.6918    0.0000 C   0  0  0  0  0  0  0  0  0  0  0  0
   -5.5085   -0.2283    0.0000 C   0  0  0  0  0  0  0  0  0  0  0  0
   -6.6232   -1.2320    0.0000 C   0  0  0  0  0  0  0  0  0  0  0  0
   -6.3114   -2.6992    0.0000 N   0  0  0  0  0  0  0  0  0  0  0  0
   -4.8848   -3.1627    0.0000 C   0  0  0  0  0  0  0  0  0  0  0  0
   -3.7701   -2.1590    0.0000 C   0  0  0  0  0  0  0  0  0  0  0  0
   -1.5000    0.0000    0.0000 C   0  0  0  0  0  0  0  0  0  0  0  0
   -0.7500   -1.2990    0.0000 C   0  0  0  0  0  0  0  0  0  0  0  0
    3.0000   -2.5981    0.0000 C   0  0  0  0  0  0  0  0  0  0  0  0
    3.7500   -3.8971    0.0000 C   0  0  0  0  0  0  0  0  0  0  0  0
    3.0000   -5.1962    0.0000 C   0  0  0  0  0  0  0  0  0  0  0  0
    3.7500   -6.4952    0.0000 C   0  0  0  0  0  0  0  0  0  0  0  0
    3.0000   -7.7942    0.0000 O   0  0  0  0  0  0  0  0  0  0  0  0
    5.2500   -6.4952    0.0000 N   0  0  0  0  0  0  0  0  0  0  0  0
    6.0000   -7.7942    0.0000 C   0  0  0  0  0  0  0  0  0  0  0  0
    7.5000   -7.7942    0.0000 C   0  0  0  0  0  0  0  0  0  0  0  0
    8.2500   -6.4952    0.0000 O   0  0  0  0  0  0  0  0  0  0  0  0
    7.5000   -5.1962    0.0000 C   0  0  0  0  0  0  0  0  0  0  0  0
    6.0000   -5.1962    0.0000 C   0  0  0  0  0  0  0  0  0  0  0  0
  1  2  1  0
  2  3  2  0
  3  4  1  0
  4  5  1  0
  5  6  2  0
  6  7  1  0
  7  8  2  0
  8  9  1  0
  9 10  1  0
 10 11  2  0
 11 12  1  0
 12 13  2  0
 13 14  1  0
 14 15  2  0
 15 16  1  0
 16 17  2  0
 11 18  1  0
 18 19  2  0
  4 20  2  0
 20 21  1  0
 21 22  2  0
 22 23  1  0
 23 24  2  0
 23 25  1  0
 25 26  1  0
 26 27  1  0
 27 28  1  0
 28 29  1  0
 29 30  1  0
 22  2  1  0
 30 25  1  0
 19  5  1  0
 18  8  1  0
 17 12  1  0
M  END
>  <Compound_ID>  (74) 
CHEMBL2152278

>  <Molecule Name>  (74) 
nan

>  <Molecular Weight>  (74) 
399.45

>  <AlogP>  (74) 
3.35

>  <Smiles>  (74) 
Nc1cc(-c2cnc3[nH]cc(-c4ccncc4)c3c2)ccc1C(=O)N1CCOCC1

>  <Standard Type>  (74) 
IC50

>  <Standard Relation>  (74) 
'='

>  <Standard Units>  (74) 
nM

>  <Standard Value>  (74) 
88.6

>  <Assay ChEMBL ID>  (74) 
CHEMBL2157053

>  <Assay Description>  (74) 
Inhibition of TRKA assessed as [gamma33P]ATP incorporation into substrate

>  <BAO Format ID>  (74) 
BAO_0000357

>  <BAO Label>  (74) 
single protein format

>  <Assay Organism>  (74) 
None

>  <Target ChEMBL ID>  (74) 
CHEMBL2815

>  <Target Name>  (74) 
Nerve growth factor receptor Trk-A

>  <Target Organism>  (74) 
Homo sapiens

>  <Target Type>  (74) 
SINGLE PROTEIN

>  <Document ChEMBL ID>  (74) 
CHEMBL2150859

>  <Source Description>  (74) 
Scientific Literature

>  <Document Journal>  (74) 
J Med Chem

>  <Document Year>  (74) 
2012.0

>  <Active>  (74) 
1.0

>  <bits>  (74) 
<rdkit.DataStructs.cDataStructs.ExplicitBitVect object at 0x00000159F5492570>

>  <Group>  (74) 
G2

$$$$

     RDKit          2D

 36 39  0  0  0  0  0  0  0  0999 V2000
   -8.3172   -3.2650    0.0000 C   0  0  0  0  0  0  0  0  0  0  0  0
   -9.6162   -4.0150    0.0000 C   0  0  0  0  0  0  0  0  0  0  0  0
  -10.9866   -3.4049    0.0000 C   0  0  0  0  0  0  0  0  0  0  0  0
  -11.9903   -4.5196    0.0000 C   0  0  0  0  0  0  0  0  0  0  0  0
  -13.4820   -4.3628    0.0000 C   0  0  0  0  0  0  0  0  0  0  0  0
  -14.9738   -4.2060    0.0000 F   0  0  0  0  0  0  0  0  0  0  0  0
  -13.3252   -2.8710    0.0000 F   0  0  0  0  0  0  0  0  0  0  0  0
  -13.6388   -5.8546    0.0000 F   0  0  0  0  0  0  0  0  0  0  0  0
  -11.2403   -5.8186    0.0000 N   0  0  0  0  0  0  0  0  0  0  0  0
   -9.7730   -5.5068    0.0000 N   0  0  0  0  0  0  0  0  0  0  0  0
   -8.6583   -6.5105    0.0000 C   0  0  0  0  0  0  0  0  0  0  0  0
   -7.2317   -6.0469    0.0000 C   0  0  0  0  0  0  0  0  0  0  0  0
   -6.9199   -4.5797    0.0000 O   0  0  0  0  0  0  0  0  0  0  0  0
   -6.1170   -7.0506    0.0000 N   0  0  0  0  0  0  0  0  0  0  0  0
   -4.6904   -6.5871    0.0000 C   0  0  0  0  0  0  0  0  0  0  0  0
   -3.5757   -7.5908    0.0000 C   0  0  0  0  0  0  0  0  0  0  0  0
   -2.1491   -7.1273    0.0000 N   0  0  0  0  0  0  0  0  0  0  0  0
   -1.8373   -5.6601    0.0000 C   0  0  0  0  0  0  0  0  0  0  0  0
   -2.9520   -4.6564    0.0000 C   0  0  0  0  0  0  0  0  0  0  0  0
   -2.6401   -3.1891    0.0000 C   0  0  0  0  0  0  0  0  0  0  0  0
   -3.7548   -2.1855    0.0000 O   0  0  0  0  0  0  0  0  0  0  0  0
   -1.2135   -2.7256    0.0000 C   0  0  0  0  0  0  0  0  0  0  0  0
   -0.0000   -3.6073    0.0000 C   0  0  0  0  0  0  0  0  0  0  0  0
    1.2135   -2.7256    0.0000 N   0  0  0  0  0  0  0  0  0  0  0  0
    2.6401   -3.1891    0.0000 C   0  0  0  0  0  0  0  0  0  0  0  0
    2.9520   -4.6564    0.0000 C   0  0  0  0  0  0  0  0  0  0  0  0
    3.7548   -2.1855    0.0000 C   0  0  0  0  0  0  0  0  0  0  0  0
    5.1814   -2.6490    0.0000 O   0  0  0  0  0  0  0  0  0  0  0  0
    0.7500   -1.2990    0.0000 C   0  0  0  0  0  0  0  0  0  0  0  0
    1.5000    0.0000    0.0000 C   0  0  0  0  0  0  0  0  0  0  0  0
    3.0000    0.0000    0.0000 F   0  0  0  0  0  0  0  0  0  0  0  0
    0.7500    1.2990    0.0000 C   0  0  0  0  0  0  0  0  0  0  0  0
   -0.7500    1.2990    0.0000 N   0  0  0  0  0  0  0  0  0  0  0  0
   -1.5000    0.0000    0.0000 C   0  0  0  0  0  0  0  0  0  0  0  0
   -0.7500   -1.2990    0.0000 C   0  0  0  0  0  0  0  0  0  0  0  0
   -4.3786   -5.1199    0.0000 C   0  0  0  0  0  0  0  0  0  0  0  0
  1  2  1  0
  2  3  2  0
  3  4  1  0
  4  5  1  0
  5  6  1  0
  5  7  1  0
  5  8  1  0
  4  9  2  0
  9 10  1  0
 10 11  1  0
 11 12  1  0
 12 13  2  0
 12 14  1  0
 14 15  1  0
 15 16  2  0
 16 17  1  0
 17 18  2  0
 18 19  1  0
 19 20  1  0
 20 21  2  0
 20 22  1  0
 22 23  2  0
 23 24  1  0
 24 25  1  0
 25 26  1  0
 25 27  1  0
 27 28  1  0
 24 29  1  0
 29 30  2  0
 30 31  1  0
 30 32  1  0
 32 33  2  0
 33 34  1  0
 34 35  2  0
 19 36  2  0
 10  2  1  0
 36 15  1  0
 35 22  1  0
 35 29  1  0
M  END
>  <Compound_ID>  (75) 
CHEMBL3936972

>  <Molecule Name>  (75) 
nan

>  <Molecular Weight>  (75) 
504.44

>  <AlogP>  (75) 
3.52

>  <Smiles>  (75) 
Cc1cc(C(F)(F)F)nn1CC(=O)Nc1cncc(C(=O)c2cn(C(C)CO)c3c(F)cncc23)c1

>  <Standard Type>  (75) 
IC50

>  <Standard Relation>  (75) 
'='

>  <Standard Units>  (75) 
nM

>  <Standard Value>  (75) 
20.4

>  <Assay ChEMBL ID>  (75) 
CHEMBL3887111

>  <Assay Description>  (75) 
HTRF Assay: Isolated TRK Enzyme assays use the HTRF KinEASE-TK kit (Cisbio Cat#62TK0PEJ) with recombinant His-tagged cytoplasmic domains of each TRK receptor sourced from Invitrogen (see table below). This activity-assay measures the phosphorylation of tyrosine residues within a substrate from the HTRF kit which has been validated by Cisbio for a variety of tyrosine kinases including the TRK receptors.Assay Details: Invitrogen Amino FAC FAC Assay ReactionTarget Cat# acids enzyme ATP TimeTRKA PV3144 aa 441-4 nM 40 uM 35 min (NTRK1) 796 TRKB PV3616 aa 526-1 nM 1.4 uM 40 min (NTRK2) 838 TRKC PV3617 aa 510- 10 nM 15 uM 30 min (NTRK3) 8250.5 mM stock solutions of test compounds are prepared and serially diluted in 100% DMSO. A standard curve using the compound of Example 135 disclosed in WO2005/116035 of 150 uM is also prepared on each test plate. High percentage effect (HPE) is defined by 150 uM.

>  <BAO Format ID>  (75) 
BAO_0000357

>  <BAO Label>  (75) 
single protein format

>  <Assay Organism>  (75) 
None

>  <Target ChEMBL ID>  (75) 
CHEMBL2815

>  <Target Name>  (75) 
Nerve growth factor receptor Trk-A

>  <Target Organism>  (75) 
Homo sapiens

>  <Target Type>  (75) 
SINGLE PROTEIN

>  <Document ChEMBL ID>  (75) 
CHEMBL3886170

>  <Source Description>  (75) 
BindingDB Database

>  <Document Journal>  (75) 
nan

>  <Document Year>  (75) 
2015.0

>  <Active>  (75) 
1.0

>  <bits>  (75) 
<rdkit.DataStructs.cDataStructs.ExplicitBitVect object at 0x00000159F54930D0>

>  <Group>  (75) 
G2

$$$$

     RDKit          2D

 34 37  0  0  0  0  0  0  0  0999 V2000
   -2.9520   -4.6564    0.0000 C   0  0  0  0  0  0  0  0  0  0  0  0
   -2.6401   -3.1891    0.0000 C   0  0  0  0  0  0  0  0  0  0  0  0
   -3.7548   -2.1855    0.0000 C   0  0  0  0  0  0  0  0  0  0  0  0
   -1.2135   -2.7256    0.0000 N   0  0  0  0  0  0  0  0  0  0  0  0
   -0.0000   -3.6073    0.0000 C   0  0  0  0  0  0  0  0  0  0  0  0
    1.2135   -2.7256    0.0000 C   0  0  0  0  0  0  0  0  0  0  0  0
    2.6401   -3.1891    0.0000 C   0  0  0  0  0  0  0  0  0  0  0  0
    3.7548   -2.1855    0.0000 O   0  0  0  0  0  0  0  0  0  0  0  0
    2.9520   -4.6564    0.0000 C   0  0  0  0  0  0  0  0  0  0  0  0
    1.8373   -5.6601    0.0000 C   0  0  0  0  0  0  0  0  0  0  0  0
    2.1491   -7.1273    0.0000 N   0  0  0  0  0  0  0  0  0  0  0  0
    3.5757   -7.5908    0.0000 C   0  0  0  0  0  0  0  0  0  0  0  0
    4.6904   -6.5871    0.0000 C   0  0  0  0  0  0  0  0  0  0  0  0
    6.1170   -7.0506    0.0000 N   0  0  0  0  0  0  0  0  0  0  0  0
    6.4289   -8.5179    0.0000 C   0  0  0  0  0  0  0  0  0  0  0  0
    5.3142   -9.5216    0.0000 O   0  0  0  0  0  0  0  0  0  0  0  0
    7.8555   -8.9814    0.0000 C   0  0  0  0  0  0  0  0  0  0  0  0
    8.1673  -10.4486    0.0000 N   0  0  0  0  0  0  0  0  0  0  0  0
    9.5377  -11.0587    0.0000 C   0  0  0  0  0  0  0  0  0  0  0  0
    9.3809  -12.5505    0.0000 C   0  0  0  0  0  0  0  0  0  0  0  0
   10.4956  -13.5542    0.0000 C   0  0  0  0  0  0  0  0  0  0  0  0
   11.6103  -14.5579    0.0000 F   0  0  0  0  0  0  0  0  0  0  0  0
    9.4919  -14.6689    0.0000 F   0  0  0  0  0  0  0  0  0  0  0  0
   11.4993  -12.4395    0.0000 F   0  0  0  0  0  0  0  0  0  0  0  0
    7.9136  -12.8624    0.0000 N   0  0  0  0  0  0  0  0  0  0  0  0
    7.1636  -11.5633    0.0000 N   0  0  0  0  0  0  0  0  0  0  0  0
    4.3786   -5.1199    0.0000 C   0  0  0  0  0  0  0  0  0  0  0  0
    0.7500   -1.2990    0.0000 C   0  0  0  0  0  0  0  0  0  0  0  0
    1.5000    0.0000    0.0000 C   0  0  0  0  0  0  0  0  0  0  0  0
    0.7500    1.2990    0.0000 N   0  0  0  0  0  0  0  0  0  0  0  0
   -0.7500    1.2990    0.0000 C   0  0  0  0  0  0  0  0  0  0  0  0
   -1.5000    0.0000    0.0000 C   0  0  0  0  0  0  0  0  0  0  0  0
   -3.0000    0.0000    0.0000 F   0  0  0  0  0  0  0  0  0  0  0  0
   -0.7500   -1.2990    0.0000 C   0  0  0  0  0  0  0  0  0  0  0  0
  1  2  1  0
  2  3  1  0
  2  4  1  0
  4  5  1  0
  5  6  2  0
  6  7  1  0
  7  8  2  0
  7  9  1  0
  9 10  2  0
 10 11  1  0
 11 12  2  0
 12 13  1  0
 13 14  1  0
 14 15  1  0
 15 16  2  0
 15 17  1  0
 17 18  1  0
 18 19  1  0
 19 20  2  0
 20 21  1  0
 21 22  1  0
 21 23  1  0
 21 24  1  0
 20 25  1  0
 25 26  2  0
 13 27  2  0
  6 28  1  0
 28 29  2  0
 29 30  1  0
 30 31  2  0
 31 32  1  0
 32 33  1  0
 32 34  2  0
 34  4  1  0
 27  9  1  0
 34 28  1  0
 26 18  1  0
M  END
>  <Compound_ID>  (76) 
CHEMBL3986848

>  <Molecule Name>  (76) 
nan

>  <Molecular Weight>  (76) 
475.41

>  <AlogP>  (76) 
3.63

>  <Smiles>  (76) 
CC(C)n1cc(C(=O)c2cncc(NC(=O)Cn3cc(C(F)(F)F)nn3)c2)c2cncc(F)c21

>  <Standard Type>  (76) 
IC50

>  <Standard Relation>  (76) 
'='

>  <Standard Units>  (76) 
nM

>  <Standard Value>  (76) 
29.0

>  <Assay ChEMBL ID>  (76) 
CHEMBL3887111

>  <Assay Description>  (76) 
HTRF Assay: Isolated TRK Enzyme assays use the HTRF KinEASE-TK kit (Cisbio Cat#62TK0PEJ) with recombinant His-tagged cytoplasmic domains of each TRK receptor sourced from Invitrogen (see table below). This activity-assay measures the phosphorylation of tyrosine residues within a substrate from the HTRF kit which has been validated by Cisbio for a variety of tyrosine kinases including the TRK receptors.Assay Details: Invitrogen Amino FAC FAC Assay ReactionTarget Cat# acids enzyme ATP TimeTRKA PV3144 aa 441-4 nM 40 uM 35 min (NTRK1) 796 TRKB PV3616 aa 526-1 nM 1.4 uM 40 min (NTRK2) 838 TRKC PV3617 aa 510- 10 nM 15 uM 30 min (NTRK3) 8250.5 mM stock solutions of test compounds are prepared and serially diluted in 100% DMSO. A standard curve using the compound of Example 135 disclosed in WO2005/116035 of 150 uM is also prepared on each test plate. High percentage effect (HPE) is defined by 150 uM.

>  <BAO Format ID>  (76) 
BAO_0000357

>  <BAO Label>  (76) 
single protein format

>  <Assay Organism>  (76) 
None

>  <Target ChEMBL ID>  (76) 
CHEMBL2815

>  <Target Name>  (76) 
Nerve growth factor receptor Trk-A

>  <Target Organism>  (76) 
Homo sapiens

>  <Target Type>  (76) 
SINGLE PROTEIN

>  <Document ChEMBL ID>  (76) 
CHEMBL3886170

>  <Source Description>  (76) 
BindingDB Database

>  <Document Journal>  (76) 
nan

>  <Document Year>  (76) 
2015.0

>  <Active>  (76) 
1.0

>  <bits>  (76) 
<rdkit.DataStructs.cDataStructs.ExplicitBitVect object at 0x00000159F5492420>

>  <Group>  (76) 
G2

$$$$

     RDKit          2D

 32 36  0  0  0  0  0  0  0  0999 V2000
   -2.9520   -4.6564    0.0000 C   0  0  0  0  0  0  0  0  0  0  0  0
   -2.6401   -3.1891    0.0000 C   0  0  0  0  0  0  0  0  0  0  0  0
   -3.7548   -2.1855    0.0000 C   0  0  0  0  0  0  0  0  0  0  0  0
   -1.2135   -2.7256    0.0000 N   0  0  0  0  0  0  0  0  0  0  0  0
   -0.0000   -3.6073    0.0000 C   0  0  0  0  0  0  0  0  0  0  0  0
    1.2135   -2.7256    0.0000 C   0  0  0  0  0  0  0  0  0  0  0  0
    2.6401   -3.1891    0.0000 C   0  0  0  0  0  0  0  0  0  0  0  0
    3.7548   -2.1855    0.0000 O   0  0  0  0  0  0  0  0  0  0  0  0
    2.9520   -4.6564    0.0000 C   0  0  0  0  0  0  0  0  0  0  0  0
    1.8373   -5.6601    0.0000 C   0  0  0  0  0  0  0  0  0  0  0  0
    2.1491   -7.1273    0.0000 N   0  0  0  0  0  0  0  0  0  0  0  0
    3.5757   -7.5908    0.0000 C   0  0  0  0  0  0  0  0  0  0  0  0
    4.6904   -6.5871    0.0000 C   0  0  0  0  0  0  0  0  0  0  0  0
    6.1170   -7.0506    0.0000 N   0  0  0  0  0  0  0  0  0  0  0  0
    6.4289   -8.5179    0.0000 C   0  0  0  0  0  0  0  0  0  0  0  0
    5.3142   -9.5216    0.0000 O   0  0  0  0  0  0  0  0  0  0  0  0
    7.8555   -8.9814    0.0000 C   0  0  0  0  0  0  0  0  0  0  0  0
    8.1673  -10.4486    0.0000 N   0  0  0  0  0  0  0  0  0  0  0  0
    9.5377  -11.0587    0.0000 C   0  0  0  0  0  0  0  0  0  0  0  0
    9.3809  -12.5505    0.0000 C   0  0  0  0  0  0  0  0  0  0  0  0
   10.4956  -13.5542    0.0000 C   0  0  0  0  0  0  0  0  0  0  0  0
   11.9628  -13.8661    0.0000 C   0  0  0  0  0  0  0  0  0  0  0  0
   10.9591  -14.9808    0.0000 C   0  0  0  0  0  0  0  0  0  0  0  0
    7.9136  -12.8624    0.0000 N   0  0  0  0  0  0  0  0  0  0  0  0
    7.1636  -11.5633    0.0000 N   0  0  0  0  0  0  0  0  0  0  0  0
    4.3786   -5.1199    0.0000 C   0  0  0  0  0  0  0  0  0  0  0  0
    0.7500   -1.2990    0.0000 C   0  0  0  0  0  0  0  0  0  0  0  0
    1.5000    0.0000    0.0000 C   0  0  0  0  0  0  0  0  0  0  0  0
    0.7500    1.2990    0.0000 N   0  0  0  0  0  0  0  0  0  0  0  0
   -0.7500    1.2990    0.0000 C   0  0  0  0  0  0  0  0  0  0  0  0
   -1.5000    0.0000    0.0000 N   0  0  0  0  0  0  0  0  0  0  0  0
   -0.7500   -1.2990    0.0000 C   0  0  0  0  0  0  0  0  0  0  0  0
  1  2  1  0
  2  3  1  0
  2  4  1  0
  4  5  1  0
  5  6  2  0
  6  7  1  0
  7  8  2  0
  7  9  1  0
  9 10  2  0
 10 11  1  0
 11 12  2  0
 12 13  1  0
 13 14  1  0
 14 15  1  0
 15 16  2  0
 15 17  1  0
 17 18  1  0
 18 19  1  0
 19 20  2  0
 20 21  1  0
 21 22  1  0
 22 23  1  0
 20 24  1  0
 24 25  2  0
 13 26  2  0
  6 27  1  0
 27 28  2  0
 28 29  1  0
 29 30  2  0
 30 31  1  0
 31 32  2  0
 32  4  1  0
 26  9  1  0
 32 27  1  0
 25 18  1  0
 23 21  1  0
M  END
>  <Compound_ID>  (77) 
CHEMBL3661483

>  <Molecule Name>  (77) 
nan

>  <Molecular Weight>  (77) 
430.47

>  <AlogP>  (77) 
2.75

>  <Smiles>  (77) 
CC(C)n1cc(C(=O)c2cncc(NC(=O)Cn3cc(C4CC4)nn3)c2)c2cncnc21

>  <Standard Type>  (77) 
IC50

>  <Standard Relation>  (77) 
'='

>  <Standard Units>  (77) 
nM

>  <Standard Value>  (77) 
56.6

>  <Assay ChEMBL ID>  (77) 
CHEMBL3887033

>  <Assay Description>  (77) 
Enzyme Assay: Isolated TRK Enzyme assays use the HTRF KinEASE-TK kit (Cisbio Cat# 62TK0PEJ) with recombinant His-tagged cytoplasmic domains of each TRK receptor sourced from Invitrogen (see table below). This activity-assay measures the phosphorylation of tyrosine residues within a substrate from the HTRF kit which has been validated by Cisbio for a variety of tyrosine kinases including the TRK receptors. Assay details: Target:TRKA; Invitrogen Cat# PV3144; Amino acids:aa 441-796; FAC enzyme:4nM; FAC ATP:40uM; Assay Reaction Time:35min.

>  <BAO Format ID>  (77) 
BAO_0000357

>  <BAO Label>  (77) 
single protein format

>  <Assay Organism>  (77) 
None

>  <Target ChEMBL ID>  (77) 
CHEMBL2815

>  <Target Name>  (77) 
Nerve growth factor receptor Trk-A

>  <Target Organism>  (77) 
Homo sapiens

>  <Target Type>  (77) 
SINGLE PROTEIN

>  <Document ChEMBL ID>  (77) 
CHEMBL3639348

>  <Source Description>  (77) 
BindingDB Database

>  <Document Journal>  (77) 
nan

>  <Document Year>  (77) 
2014.0

>  <Active>  (77) 
1.0

>  <bits>  (77) 
<rdkit.DataStructs.cDataStructs.ExplicitBitVect object at 0x00000159F5492180>

>  <Group>  (77) 
G2

$$$$

     RDKit          2D

 34 38  0  0  0  0  0  0  0  0999 V2000
   -2.9520   -4.6564    0.0000 C   0  0  0  0  0  0  0  0  0  0  0  0
   -2.6401   -3.1891    0.0000 C   0  0  0  0  0  0  0  0  0  0  0  0
   -3.7548   -2.1855    0.0000 C   0  0  0  0  0  0  0  0  0  0  0  0
   -1.2135   -2.7256    0.0000 N   0  0  0  0  0  0  0  0  0  0  0  0
   -0.0000   -3.6073    0.0000 C   0  0  0  0  0  0  0  0  0  0  0  0
    1.2135   -2.7256    0.0000 C   0  0  0  0  0  0  0  0  0  0  0  0
    2.6401   -3.1891    0.0000 C   0  0  0  0  0  0  0  0  0  0  0  0
    3.7548   -2.1855    0.0000 O   0  0  0  0  0  0  0  0  0  0  0  0
    2.9520   -4.6564    0.0000 C   0  0  0  0  0  0  0  0  0  0  0  0
    1.8373   -5.6601    0.0000 C   0  0  0  0  0  0  0  0  0  0  0  0
    2.1491   -7.1273    0.0000 N   0  0  0  0  0  0  0  0  0  0  0  0
    3.5757   -7.5908    0.0000 C   0  0  0  0  0  0  0  0  0  0  0  0
    4.6904   -6.5871    0.0000 C   0  0  0  0  0  0  0  0  0  0  0  0
    6.1170   -7.0506    0.0000 N   0  0  0  0  0  0  0  0  0  0  0  0
    6.4289   -8.5179    0.0000 C   0  0  0  0  0  0  0  0  0  0  0  0
    5.3142   -9.5216    0.0000 O   0  0  0  0  0  0  0  0  0  0  0  0
    7.8555   -8.9814    0.0000 C   0  0  0  0  0  0  0  0  0  0  0  0
    8.1673  -10.4486    0.0000 N   0  0  0  0  0  0  0  0  0  0  0  0
    7.1636  -11.5633    0.0000 N   0  0  0  0  0  0  0  0  0  0  0  0
    7.9136  -12.8624    0.0000 C   0  0  0  0  0  0  0  0  0  0  0  0
    9.3809  -12.5505    0.0000 C   0  0  0  0  0  0  0  0  0  0  0  0
   10.5944  -13.4322    0.0000 C   0  0  0  0  0  0  0  0  0  0  0  0
   11.9647  -12.8221    0.0000 C   0  0  0  0  0  0  0  0  0  0  0  0
   12.1215  -11.3303    0.0000 C   0  0  0  0  0  0  0  0  0  0  0  0
   10.9080  -10.4486    0.0000 C   0  0  0  0  0  0  0  0  0  0  0  0
   11.0648   -8.9568    0.0000 F   0  0  0  0  0  0  0  0  0  0  0  0
    9.5377  -11.0587    0.0000 C   0  0  0  0  0  0  0  0  0  0  0  0
    4.3786   -5.1199    0.0000 C   0  0  0  0  0  0  0  0  0  0  0  0
    0.7500   -1.2990    0.0000 C   0  0  0  0  0  0  0  0  0  0  0  0
    1.5000    0.0000    0.0000 C   0  0  0  0  0  0  0  0  0  0  0  0
    0.7500    1.2990    0.0000 N   0  0  0  0  0  0  0  0  0  0  0  0
   -0.7500    1.2990    0.0000 C   0  0  0  0  0  0  0  0  0  0  0  0
   -1.5000    0.0000    0.0000 N   0  0  0  0  0  0  0  0  0  0  0  0
   -0.7500   -1.2990    0.0000 C   0  0  0  0  0  0  0  0  0  0  0  0
  1  2  1  0
  2  3  1  0
  2  4  1  0
  4  5  1  0
  5  6  2  0
  6  7  1  0
  7  8  2  0
  7  9  1  0
  9 10  2  0
 10 11  1  0
 11 12  2  0
 12 13  1  0
 13 14  1  0
 14 15  1  0
 15 16  2  0
 15 17  1  0
 17 18  1  0
 18 19  1  0
 19 20  2  0
 20 21  1  0
 21 22  2  0
 22 23  1  0
 23 24  2  0
 24 25  1  0
 25 26  1  0
 25 27  2  0
 13 28  2  0
  6 29  1  0
 29 30  2  0
 30 31  1  0
 31 32  2  0
 32 33  1  0
 33 34  2  0
 34  4  1  0
 28  9  1  0
 34 29  1  0
 27 18  1  0
 27 21  1  0
M  END
>  <Compound_ID>  (78) 
CHEMBL3661501

>  <Molecule Name>  (78) 
nan

>  <Molecular Weight>  (78) 
457.47

>  <AlogP>  (78) 
3.77

>  <Smiles>  (78) 
CC(C)n1cc(C(=O)c2cncc(NC(=O)Cn3ncc4cccc(F)c43)c2)c2cncnc21

>  <Standard Type>  (78) 
IC50

>  <Standard Relation>  (78) 
'='

>  <Standard Units>  (78) 
nM

>  <Standard Value>  (78) 
12.3

>  <Assay ChEMBL ID>  (78) 
CHEMBL3887033

>  <Assay Description>  (78) 
Enzyme Assay: Isolated TRK Enzyme assays use the HTRF KinEASE-TK kit (Cisbio Cat# 62TK0PEJ) with recombinant His-tagged cytoplasmic domains of each TRK receptor sourced from Invitrogen (see table below). This activity-assay measures the phosphorylation of tyrosine residues within a substrate from the HTRF kit which has been validated by Cisbio for a variety of tyrosine kinases including the TRK receptors. Assay details: Target:TRKA; Invitrogen Cat# PV3144; Amino acids:aa 441-796; FAC enzyme:4nM; FAC ATP:40uM; Assay Reaction Time:35min.

>  <BAO Format ID>  (78) 
BAO_0000357

>  <BAO Label>  (78) 
single protein format

>  <Assay Organism>  (78) 
None

>  <Target ChEMBL ID>  (78) 
CHEMBL2815

>  <Target Name>  (78) 
Nerve growth factor receptor Trk-A

>  <Target Organism>  (78) 
Homo sapiens

>  <Target Type>  (78) 
SINGLE PROTEIN

>  <Document ChEMBL ID>  (78) 
CHEMBL3639348

>  <Source Description>  (78) 
BindingDB Database

>  <Document Journal>  (78) 
nan

>  <Document Year>  (78) 
2014.0

>  <Active>  (78) 
1.0

>  <bits>  (78) 
<rdkit.DataStructs.cDataStructs.ExplicitBitVect object at 0x00000159F5492030>

>  <Group>  (78) 
G2

$$$$

     RDKit          2D

 33 36  0  0  0  0  0  0  0  0999 V2000
   -2.9520   -4.6564    0.0000 C   0  0  0  0  0  0  0  0  0  0  0  0
   -2.6401   -3.1891    0.0000 C   0  0  0  0  0  0  0  0  0  0  0  0
   -3.7548   -2.1855    0.0000 C   0  0  0  0  0  0  0  0  0  0  0  0
   -5.1814   -2.6490    0.0000 O   0  0  0  0  0  0  0  0  0  0  0  0
   -1.2135   -2.7256    0.0000 N   0  0  0  0  0  0  0  0  0  0  0  0
   -0.0000   -3.6073    0.0000 C   0  0  0  0  0  0  0  0  0  0  0  0
    1.2135   -2.7256    0.0000 C   0  0  0  0  0  0  0  0  0  0  0  0
    2.6401   -3.1891    0.0000 C   0  0  0  0  0  0  0  0  0  0  0  0
    3.7548   -2.1855    0.0000 O   0  0  0  0  0  0  0  0  0  0  0  0
    2.9520   -4.6564    0.0000 C   0  0  0  0  0  0  0  0  0  0  0  0
    1.8373   -5.6601    0.0000 C   0  0  0  0  0  0  0  0  0  0  0  0
    2.1491   -7.1273    0.0000 N   0  0  0  0  0  0  0  0  0  0  0  0
    3.5757   -7.5908    0.0000 C   0  0  0  0  0  0  0  0  0  0  0  0
    4.6904   -6.5871    0.0000 C   0  0  0  0  0  0  0  0  0  0  0  0
    6.1170   -7.0506    0.0000 N   0  0  0  0  0  0  0  0  0  0  0  0
    6.4289   -8.5179    0.0000 C   0  0  0  0  0  0  0  0  0  0  0  0
    5.3142   -9.5216    0.0000 O   0  0  0  0  0  0  0  0  0  0  0  0
    7.8555   -8.9814    0.0000 C   0  0  0  0  0  0  0  0  0  0  0  0
    8.1673  -10.4486    0.0000 C   0  0  0  0  0  0  0  0  0  0  0  0
    7.0526  -11.4523    0.0000 C   0  0  0  0  0  0  0  0  0  0  0  0
    7.3645  -12.9195    0.0000 C   0  0  0  0  0  0  0  0  0  0  0  0
    8.7911  -13.3831    0.0000 C   0  0  0  0  0  0  0  0  0  0  0  0
    9.1029  -14.8503    0.0000 Cl  0  0  0  0  0  0  0  0  0  0  0  0
    9.9058  -12.3794    0.0000 C   0  0  0  0  0  0  0  0  0  0  0  0
    9.5939  -10.9121    0.0000 C   0  0  0  0  0  0  0  0  0  0  0  0
    4.3786   -5.1199    0.0000 C   0  0  0  0  0  0  0  0  0  0  0  0
    0.7500   -1.2990    0.0000 C   0  0  0  0  0  0  0  0  0  0  0  0
    1.5000    0.0000    0.0000 C   0  0  0  0  0  0  0  0  0  0  0  0
    0.7500    1.2990    0.0000 N   0  0  0  0  0  0  0  0  0  0  0  0
   -0.7500    1.2990    0.0000 C   0  0  0  0  0  0  0  0  0  0  0  0
   -1.5000    0.0000    0.0000 C   0  0  0  0  0  0  0  0  0  0  0  0
   -3.0000    0.0000    0.0000 F   0  0  0  0  0  0  0  0  0  0  0  0
   -0.7500   -1.2990    0.0000 C   0  0  0  0  0  0  0  0  0  0  0  0
  1  2  1  0
  2  3  1  0
  3  4  1  0
  2  5  1  0
  5  6  1  0
  6  7  2  0
  7  8  1  0
  8  9  2  0
  8 10  1  0
 10 11  2  0
 11 12  1  0
 12 13  2  0
 13 14  1  0
 14 15  1  0
 15 16  1  0
 16 17  2  0
 16 18  1  0
 18 19  1  0
 19 20  2  0
 20 21  1  0
 21 22  2  0
 22 23  1  0
 22 24  1  0
 24 25  2  0
 14 26  2  0
  7 27  1  0
 27 28  2  0
 28 29  1  0
 29 30  2  0
 30 31  1  0
 31 32  1  0
 31 33  2  0
 33  5  1  0
 26 10  1  0
 33 27  1  0
 25 19  1  0
M  END
>  <Compound_ID>  (79) 
CHEMBL3899663

>  <Molecule Name>  (79) 
nan

>  <Molecular Weight>  (79) 
466.9

>  <AlogP>  (79) 
4.19

>  <Smiles>  (79) 
CC(CO)n1cc(C(=O)c2cncc(NC(=O)Cc3ccc(Cl)cc3)c2)c2cncc(F)c21

>  <Standard Type>  (79) 
IC50

>  <Standard Relation>  (79) 
'='

>  <Standard Units>  (79) 
nM

>  <Standard Value>  (79) 
27.8

>  <Assay ChEMBL ID>  (79) 
CHEMBL3887111

>  <Assay Description>  (79) 
HTRF Assay: Isolated TRK Enzyme assays use the HTRF KinEASE-TK kit (Cisbio Cat#62TK0PEJ) with recombinant His-tagged cytoplasmic domains of each TRK receptor sourced from Invitrogen (see table below). This activity-assay measures the phosphorylation of tyrosine residues within a substrate from the HTRF kit which has been validated by Cisbio for a variety of tyrosine kinases including the TRK receptors.Assay Details: Invitrogen Amino FAC FAC Assay ReactionTarget Cat# acids enzyme ATP TimeTRKA PV3144 aa 441-4 nM 40 uM 35 min (NTRK1) 796 TRKB PV3616 aa 526-1 nM 1.4 uM 40 min (NTRK2) 838 TRKC PV3617 aa 510- 10 nM 15 uM 30 min (NTRK3) 8250.5 mM stock solutions of test compounds are prepared and serially diluted in 100% DMSO. A standard curve using the compound of Example 135 disclosed in WO2005/116035 of 150 uM is also prepared on each test plate. High percentage effect (HPE) is defined by 150 uM.

>  <BAO Format ID>  (79) 
BAO_0000357

>  <BAO Label>  (79) 
single protein format

>  <Assay Organism>  (79) 
None

>  <Target ChEMBL ID>  (79) 
CHEMBL2815

>  <Target Name>  (79) 
Nerve growth factor receptor Trk-A

>  <Target Organism>  (79) 
Homo sapiens

>  <Target Type>  (79) 
SINGLE PROTEIN

>  <Document ChEMBL ID>  (79) 
CHEMBL3886170

>  <Source Description>  (79) 
BindingDB Database

>  <Document Journal>  (79) 
nan

>  <Document Year>  (79) 
2015.0

>  <Active>  (79) 
1.0

>  <bits>  (79) 
<rdkit.DataStructs.cDataStructs.ExplicitBitVect object at 0x00000159F5492FF0>

>  <Group>  (79) 
G2

$$$$

     RDKit          2D

 29 31  0  0  0  0  0  0  0  0999 V2000
    3.0000    0.0000    0.0000 C   0  0  0  0  0  0  0  0  0  0  0  0
    1.5000    0.0000    0.0000 C   0  0  0  0  0  0  0  0  0  0  0  0
    0.7500   -1.2990    0.0000 C   0  0  0  0  0  0  0  0  0  0  0  0
   -0.7500   -1.2990    0.0000 C   0  0  0  0  0  0  0  0  0  0  0  0
   -1.5000    0.0000    0.0000 C   0  0  0  0  0  0  0  0  0  0  0  0
   -3.0000    0.0000    0.0000 S   0  0  0  0  0  0  0  0  0  0  0  0
   -3.7500    1.2990    0.0000 C   0  0  0  0  0  0  0  0  0  0  0  0
   -5.2418    1.4558    0.0000 C   0  0  0  0  0  0  0  0  0  0  0  0
   -5.5537    2.9231    0.0000 N   0  0  0  0  0  0  0  0  0  0  0  0
   -4.2546    3.6731    0.0000 C   0  0  0  0  0  0  0  0  0  0  0  0
   -4.0978    5.1648    0.0000 N   0  0  0  0  0  0  0  0  0  0  0  0
   -5.3113    6.0465    0.0000 C   0  0  0  0  0  0  0  0  0  0  0  0
   -5.1546    7.5383    0.0000 C   0  0  0  0  0  0  0  0  0  0  0  0
   -6.3681    8.4200    0.0000 C   0  0  0  0  0  0  0  0  0  0  0  0
   -7.7384    7.8099    0.0000 C   0  0  0  0  0  0  0  0  0  0  0  0
   -7.8952    6.3181    0.0000 C   0  0  0  0  0  0  0  0  0  0  0  0
   -9.2655    5.7080    0.0000 Br  0  0  0  0  0  0  0  0  0  0  0  0
   -6.6817    5.4364    0.0000 N   0  0  0  0  0  0  0  0  0  0  0  0
   -3.1399    2.6694    0.0000 S   0  0  0  0  0  0  0  0  0  0  0  0
   -0.7500    1.2990    0.0000 C   0  0  0  0  0  0  0  0  0  0  0  0
    0.7500    1.2990    0.0000 C   0  0  0  0  0  0  0  0  0  0  0  0
    1.5000    2.5981    0.0000 C   0  0  0  0  0  0  0  0  0  0  0  0
    3.0000    2.5981    0.0000 O   0  0  0  0  0  0  0  0  0  0  0  0
    0.7500    3.8971    0.0000 N   0  0  0  0  0  0  0  0  0  0  0  0
    1.5000    5.1962    0.0000 C   0  0  0  0  0  0  0  0  0  0  0  0
   -0.7500    3.8971    0.0000 C   0  0  0  0  0  0  0  0  0  0  0  0
   -1.5000    5.1962    0.0000 C   0  0  0  0  0  0  0  0  0  0  0  0
   -0.7500    6.4952    0.0000 C   0  0  0  0  0  0  0  0  0  0  0  0
    0.0000    7.7942    0.0000 N   0  0  0  0  0  0  0  0  0  0  0  0
  1  2  1  0
  2  3  2  0
  3  4  1  0
  4  5  2  0
  5  6  1  0
  6  7  1  0
  7  8  2  0
  8  9  1  0
  9 10  2  0
 10 11  1  0
 11 12  1  0
 12 13  2  0
 13 14  1  0
 14 15  2  0
 15 16  1  0
 16 17  1  0
 16 18  2  0
 10 19  1  0
  5 20  1  0
 20 21  2  0
 21 22  1  0
 22 23  2  0
 22 24  1  0
 24 25  1  0
 24 26  1  0
 26 27  1  0
 27 28  1  0
 28 29  3  0
 21  2  1  0
 19  7  1  0
 18 12  1  0
M  END
>  <Compound_ID>  (80) 
CHEMBL254268

>  <Molecule Name>  (80) 
nan

>  <Molecular Weight>  (80) 
488.44

>  <AlogP>  (80) 
5.49

>  <Smiles>  (80) 
Cc1ccc(Sc2cnc(Nc3cccc(Br)n3)s2)cc1C(=O)N(C)CCC#N

>  <Standard Type>  (80) 
IC50

>  <Standard Relation>  (80) 
'='

>  <Standard Units>  (80) 
nM

>  <Standard Value>  (80) 
10.0

>  <Assay ChEMBL ID>  (80) 
CHEMBL928869

>  <Assay Description>  (80) 
Inhibition of TrkA

>  <BAO Format ID>  (80) 
BAO_0000357

>  <BAO Label>  (80) 
single protein format

>  <Assay Organism>  (80) 
None

>  <Target ChEMBL ID>  (80) 
CHEMBL2815

>  <Target Name>  (80) 
Nerve growth factor receptor Trk-A

>  <Target Organism>  (80) 
Homo sapiens

>  <Target Type>  (80) 
SINGLE PROTEIN

>  <Document ChEMBL ID>  (80) 
CHEMBL1140800

>  <Source Description>  (80) 
Scientific Literature

>  <Document Journal>  (80) 
Bioorg Med Chem Lett

>  <Document Year>  (80) 
2008.0

>  <Active>  (80) 
1.0

>  <bits>  (80) 
<rdkit.DataStructs.cDataStructs.ExplicitBitVect object at 0x00000159F5491F50>

>  <Group>  (80) 
G2

$$$$

     RDKit          2D

 33 37  0  0  0  0  0  0  0  0999 V2000
   -2.9520   -4.6564    0.0000 C   0  0  0  0  0  0  0  0  0  0  0  0
   -2.6401   -3.1891    0.0000 C   0  0  0  0  0  0  0  0  0  0  0  0
   -3.7548   -2.1855    0.0000 C   0  0  0  0  0  0  0  0  0  0  0  0
   -1.2135   -2.7256    0.0000 N   0  0  0  0  0  0  0  0  0  0  0  0
   -0.0000   -3.6073    0.0000 C   0  0  0  0  0  0  0  0  0  0  0  0
    1.2135   -2.7256    0.0000 C   0  0  0  0  0  0  0  0  0  0  0  0
    2.6401   -3.1891    0.0000 C   0  0  0  0  0  0  0  0  0  0  0  0
    3.7548   -2.1855    0.0000 O   0  0  0  0  0  0  0  0  0  0  0  0
    2.9520   -4.6564    0.0000 C   0  0  0  0  0  0  0  0  0  0  0  0
    1.8373   -5.6601    0.0000 C   0  0  0  0  0  0  0  0  0  0  0  0
    2.1491   -7.1273    0.0000 N   0  0  0  0  0  0  0  0  0  0  0  0
    3.5757   -7.5908    0.0000 C   0  0  0  0  0  0  0  0  0  0  0  0
    4.6904   -6.5871    0.0000 C   0  0  0  0  0  0  0  0  0  0  0  0
    6.1170   -7.0506    0.0000 N   0  0  0  0  0  0  0  0  0  0  0  0
    6.4289   -8.5179    0.0000 C   0  0  0  0  0  0  0  0  0  0  0  0
    5.3142   -9.5216    0.0000 O   0  0  0  0  0  0  0  0  0  0  0  0
    7.8555   -8.9814    0.0000 C   0  0  0  0  0  0  0  0  0  0  0  0
    8.1673  -10.4486    0.0000 C   0  0  0  0  0  0  0  0  0  0  0  0
    7.0526  -11.4523    0.0000 C   0  0  0  0  0  0  0  0  0  0  0  0
    7.3645  -12.9195    0.0000 C   0  0  0  0  0  0  0  0  0  0  0  0
    8.7911  -13.3831    0.0000 C   0  0  0  0  0  0  0  0  0  0  0  0
    9.4012  -14.7534    0.0000 C   0  0  0  0  0  0  0  0  0  0  0  0
   10.8930  -14.5966    0.0000 N   0  0  0  0  0  0  0  0  0  0  0  0
   11.2048  -13.1294    0.0000 N   0  0  0  0  0  0  0  0  0  0  0  0
    9.9058  -12.3794    0.0000 C   0  0  0  0  0  0  0  0  0  0  0  0
    9.5939  -10.9121    0.0000 C   0  0  0  0  0  0  0  0  0  0  0  0
    4.3786   -5.1199    0.0000 C   0  0  0  0  0  0  0  0  0  0  0  0
    0.7500   -1.2990    0.0000 C   0  0  0  0  0  0  0  0  0  0  0  0
    1.5000    0.0000    0.0000 C   0  0  0  0  0  0  0  0  0  0  0  0
    0.7500    1.2990    0.0000 N   0  0  0  0  0  0  0  0  0  0  0  0
   -0.7500    1.2990    0.0000 C   0  0  0  0  0  0  0  0  0  0  0  0
   -1.5000    0.0000    0.0000 N   0  0  0  0  0  0  0  0  0  0  0  0
   -0.7500   -1.2990    0.0000 C   0  0  0  0  0  0  0  0  0  0  0  0
  1  2  1  0
  2  3  1  0
  2  4  1  0
  4  5  1  0
  5  6  2  0
  6  7  1  0
  7  8  2  0
  7  9  1  0
  9 10  2  0
 10 11  1  0
 11 12  2  0
 12 13  1  0
 13 14  1  0
 14 15  1  0
 15 16  2  0
 15 17  1  0
 17 18  1  0
 18 19  2  0
 19 20  1  0
 20 21  2  0
 21 22  1  0
 22 23  2  0
 23 24  1  0
 24 25  1  0
 25 26  2  0
 13 27  2  0
  6 28  1  0
 28 29  2  0
 29 30  1  0
 30 31  2  0
 31 32  1  0
 32 33  2  0
 33  4  1  0
 27  9  1  0
 33 28  1  0
 26 18  1  0
 25 21  1  0
M  END
>  <Compound_ID>  (81) 
CHEMBL3661493

>  <Molecule Name>  (81) 
nan

>  <Molecular Weight>  (81) 
439.48

>  <AlogP>  (81) 
3.7

>  <Smiles>  (81) 
CC(C)n1cc(C(=O)c2cncc(NC(=O)Cc3ccc4cn[nH]c4c3)c2)c2cncnc21

>  <Standard Type>  (81) 
IC50

>  <Standard Relation>  (81) 
'='

>  <Standard Units>  (81) 
nM

>  <Standard Value>  (81) 
19.5

>  <Assay ChEMBL ID>  (81) 
CHEMBL3887033

>  <Assay Description>  (81) 
Enzyme Assay: Isolated TRK Enzyme assays use the HTRF KinEASE-TK kit (Cisbio Cat# 62TK0PEJ) with recombinant His-tagged cytoplasmic domains of each TRK receptor sourced from Invitrogen (see table below). This activity-assay measures the phosphorylation of tyrosine residues within a substrate from the HTRF kit which has been validated by Cisbio for a variety of tyrosine kinases including the TRK receptors. Assay details: Target:TRKA; Invitrogen Cat# PV3144; Amino acids:aa 441-796; FAC enzyme:4nM; FAC ATP:40uM; Assay Reaction Time:35min.

>  <BAO Format ID>  (81) 
BAO_0000357

>  <BAO Label>  (81) 
single protein format

>  <Assay Organism>  (81) 
None

>  <Target ChEMBL ID>  (81) 
CHEMBL2815

>  <Target Name>  (81) 
Nerve growth factor receptor Trk-A

>  <Target Organism>  (81) 
Homo sapiens

>  <Target Type>  (81) 
SINGLE PROTEIN

>  <Document ChEMBL ID>  (81) 
CHEMBL3639348

>  <Source Description>  (81) 
BindingDB Database

>  <Document Journal>  (81) 
nan

>  <Document Year>  (81) 
2014.0

>  <Active>  (81) 
1.0

>  <bits>  (81) 
<rdkit.DataStructs.cDataStructs.ExplicitBitVect object at 0x00000159F5491E70>

>  <Group>  (81) 
G2

$$$$

     RDKit          2D

 33 37  0  0  0  0  0  0  0  0999 V2000
   -2.9520   -4.6564    0.0000 C   0  0  0  0  0  0  0  0  0  0  0  0
   -2.6401   -3.1891    0.0000 C   0  0  0  0  0  0  0  0  0  0  0  0
   -3.7548   -2.1855    0.0000 C   0  0  0  0  0  0  0  0  0  0  0  0
   -1.2135   -2.7256    0.0000 N   0  0  0  0  0  0  0  0  0  0  0  0
   -0.0000   -3.6073    0.0000 C   0  0  0  0  0  0  0  0  0  0  0  0
    1.2135   -2.7256    0.0000 C   0  0  0  0  0  0  0  0  0  0  0  0
    2.6401   -3.1891    0.0000 C   0  0  0  0  0  0  0  0  0  0  0  0
    3.7548   -2.1855    0.0000 O   0  0  0  0  0  0  0  0  0  0  0  0
    2.9520   -4.6564    0.0000 C   0  0  0  0  0  0  0  0  0  0  0  0
    1.8373   -5.6601    0.0000 C   0  0  0  0  0  0  0  0  0  0  0  0
    2.1491   -7.1273    0.0000 N   0  0  0  0  0  0  0  0  0  0  0  0
    3.5757   -7.5908    0.0000 C   0  0  0  0  0  0  0  0  0  0  0  0
    4.6904   -6.5871    0.0000 C   0  0  0  0  0  0  0  0  0  0  0  0
    6.1170   -7.0506    0.0000 N   0  0  0  0  0  0  0  0  0  0  0  0
    6.4289   -8.5179    0.0000 C   0  0  0  0  0  0  0  0  0  0  0  0
    5.3142   -9.5216    0.0000 O   0  0  0  0  0  0  0  0  0  0  0  0
    7.8555   -8.9814    0.0000 C   0  0  0  0  0  0  0  0  0  0  0  0
    9.0690   -8.0997    0.0000 N   0  0  0  0  0  0  0  0  0  0  0  0
   10.2825   -8.9814    0.0000 N   0  0  0  0  0  0  0  0  0  0  0  0
   11.7091   -8.5179    0.0000 C   0  0  0  0  0  0  0  0  0  0  0  0
    9.8190  -10.4080    0.0000 C   0  0  0  0  0  0  0  0  0  0  0  0
   10.5690  -11.7070    0.0000 C   0  0  0  0  0  0  0  0  0  0  0  0
    9.8190  -13.0061    0.0000 C   0  0  0  0  0  0  0  0  0  0  0  0
    8.3190  -13.0061    0.0000 C   0  0  0  0  0  0  0  0  0  0  0  0
    7.5690  -11.7070    0.0000 C   0  0  0  0  0  0  0  0  0  0  0  0
    8.3190  -10.4080    0.0000 C   0  0  0  0  0  0  0  0  0  0  0  0
    4.3786   -5.1199    0.0000 C   0  0  0  0  0  0  0  0  0  0  0  0
    0.7500   -1.2990    0.0000 C   0  0  0  0  0  0  0  0  0  0  0  0
    1.5000    0.0000    0.0000 C   0  0  0  0  0  0  0  0  0  0  0  0
    0.7500    1.2990    0.0000 N   0  0  0  0  0  0  0  0  0  0  0  0
   -0.7500    1.2990    0.0000 C   0  0  0  0  0  0  0  0  0  0  0  0
   -1.5000    0.0000    0.0000 N   0  0  0  0  0  0  0  0  0  0  0  0
   -0.7500   -1.2990    0.0000 C   0  0  0  0  0  0  0  0  0  0  0  0
  1  2  1  0
  2  3  1  0
  2  4  1  0
  4  5  1  0
  5  6  2  0
  6  7  1  0
  7  8  2  0
  7  9  1  0
  9 10  2  0
 10 11  1  0
 11 12  2  0
 12 13  1  0
 13 14  1  0
 14 15  1  0
 15 16  2  0
 15 17  1  0
 17 18  2  0
 18 19  1  0
 19 20  1  0
 19 21  1  0
 21 22  2  0
 22 23  1  0
 23 24  2  0
 24 25  1  0
 25 26  2  0
 13 27  2  0
  6 28  1  0
 28 29  2  0
 29 30  1  0
 30 31  2  0
 31 32  1  0
 32 33  2  0
 33  4  1  0
 27  9  1  0
 33 28  1  0
 26 17  1  0
 26 21  1  0
M  END
>  <Compound_ID>  (82) 
CHEMBL3666365

>  <Molecule Name>  (82) 
nan

>  <Molecular Weight>  (82) 
439.48

>  <AlogP>  (82) 
3.78

>  <Smiles>  (82) 
CC(C)n1cc(C(=O)c2cncc(NC(=O)c3nn(C)c4ccccc34)c2)c2cncnc21

>  <Standard Type>  (82) 
IC50

>  <Standard Relation>  (82) 
'='

>  <Standard Units>  (82) 
nM

>  <Standard Value>  (82) 
45.7

>  <Assay ChEMBL ID>  (82) 
CHEMBL3887033

>  <Assay Description>  (82) 
Enzyme Assay: Isolated TRK Enzyme assays use the HTRF KinEASE-TK kit (Cisbio Cat# 62TK0PEJ) with recombinant His-tagged cytoplasmic domains of each TRK receptor sourced from Invitrogen (see table below). This activity-assay measures the phosphorylation of tyrosine residues within a substrate from the HTRF kit which has been validated by Cisbio for a variety of tyrosine kinases including the TRK receptors. Assay details: Target:TRKA; Invitrogen Cat# PV3144; Amino acids:aa 441-796; FAC enzyme:4nM; FAC ATP:40uM; Assay Reaction Time:35min.

>  <BAO Format ID>  (82) 
BAO_0000357

>  <BAO Label>  (82) 
single protein format

>  <Assay Organism>  (82) 
None

>  <Target ChEMBL ID>  (82) 
CHEMBL2815

>  <Target Name>  (82) 
Nerve growth factor receptor Trk-A

>  <Target Organism>  (82) 
Homo sapiens

>  <Target Type>  (82) 
SINGLE PROTEIN

>  <Document ChEMBL ID>  (82) 
CHEMBL3639348

>  <Source Description>  (82) 
BindingDB Database

>  <Document Journal>  (82) 
nan

>  <Document Year>  (82) 
2014.0

>  <Active>  (82) 
1.0

>  <bits>  (82) 
<rdkit.DataStructs.cDataStructs.ExplicitBitVect object at 0x00000159F5491E00>

>  <Group>  (82) 
G2

$$$$

     RDKit          2D

 33 37  0  0  0  0  0  0  0  0999 V2000
    2.8863   -6.1856    0.0000 C   0  0  0  0  0  0  0  0  0  0  0  0
    2.0046   -4.9721    0.0000 C   0  0  0  0  0  0  0  0  0  0  0  0
    0.8899   -5.9758    0.0000 C   0  0  0  0  0  0  0  0  0  0  0  0
    3.3037   -4.2221    0.0000 C   0  0  0  0  0  0  0  0  0  0  0  0
    2.9918   -2.7549    0.0000 C   0  0  0  0  0  0  0  0  0  0  0  0
    3.9955   -1.6402    0.0000 C   0  0  0  0  0  0  0  0  0  0  0  0
    3.5320   -0.2136    0.0000 C   0  0  0  0  0  0  0  0  0  0  0  0
    4.5356    0.9012    0.0000 C   0  0  0  0  0  0  0  0  0  0  0  0
    4.0721    2.3277    0.0000 F   0  0  0  0  0  0  0  0  0  0  0  0
    6.0029    0.5893    0.0000 C   0  0  0  0  0  0  0  0  0  0  0  0
    6.4664   -0.8373    0.0000 C   0  0  0  0  0  0  0  0  0  0  0  0
    5.4627   -1.9520    0.0000 C   0  0  0  0  0  0  0  0  0  0  0  0
    5.9262   -3.3786    0.0000 F   0  0  0  0  0  0  0  0  0  0  0  0
    1.5000   -2.5981    0.0000 N   0  0  0  0  0  0  0  0  0  0  0  0
    0.7500   -1.2990    0.0000 C   0  0  0  0  0  0  0  0  0  0  0  0
    1.5000    0.0000    0.0000 C   0  0  0  0  0  0  0  0  0  0  0  0
    0.7500    1.2990    0.0000 C   0  0  0  0  0  0  0  0  0  0  0  0
   -0.7500    1.2990    0.0000 N   0  0  0  0  0  0  0  0  0  0  0  0
   -1.7537    2.4138    0.0000 N   0  0  0  0  0  0  0  0  0  0  0  0
   -3.1240    1.8037    0.0000 C   0  0  0  0  0  0  0  0  0  0  0  0
   -2.9672    0.3119    0.0000 C   0  0  0  0  0  0  0  0  0  0  0  0
   -4.0819   -0.6918    0.0000 N   0  0  0  0  0  0  0  0  0  0  0  0
   -5.5085   -0.2283    0.0000 C   0  0  0  0  0  0  0  0  0  0  0  0
   -5.8204    1.2389    0.0000 O   0  0  0  0  0  0  0  0  0  0  0  0
   -6.6232   -1.2320    0.0000 C   0  0  0  0  0  0  0  0  0  0  0  0
   -8.0498   -0.7685    0.0000 C   0  0  0  0  0  0  0  0  0  0  0  0
   -9.1645   -1.7722    0.0000 N   0  0  0  0  0  0  0  0  0  0  0  0
   -8.8527   -3.2394    0.0000 C   0  0  0  0  0  0  0  0  0  0  0  0
   -7.4261   -3.7029    0.0000 C   0  0  0  0  0  0  0  0  0  0  0  0
   -6.3114   -2.6992    0.0000 N   0  0  0  0  0  0  0  0  0  0  0  0
   -1.5000    0.0000    0.0000 C   0  0  0  0  0  0  0  0  0  0  0  0
   -0.7500   -1.2990    0.0000 N   0  0  0  0  0  0  0  0  0  0  0  0
    0.8899   -3.9684    0.0000 C   0  0  0  0  0  0  0  0  0  0  0  0
  1  2  1  0
  2  3  1  0
  2  4  1  0
  4  5  1  0
  5  6  1  1
  6  7  2  0
  7  8  1  0
  8  9  1  0
  8 10  2  0
 10 11  1  0
 11 12  2  0
 12 13  1  0
  5 14  1  0
 14 15  1  0
 15 16  1  0
 16 17  2  0
 17 18  1  0
 18 19  1  0
 19 20  2  0
 20 21  1  0
 21 22  1  0
 22 23  1  0
 23 24  2  0
 23 25  1  0
 25 26  2  0
 26 27  1  0
 27 28  2  0
 28 29  1  0
 29 30  2  0
 21 31  2  0
 31 32  1  0
 14 33  1  0
 33  2  1  0
 12  6  1  0
 32 15  2  0
 31 18  1  0
 30 25  1  0
M  END
>  <Compound_ID>  (83) 
CHEMBL3947950

>  <Molecule Name>  (83) 
nan

>  <Molecular Weight>  (83) 
449.47

>  <AlogP>  (83) 
4.03

>  <Smiles>  (83) 
CC1(C)C[C@H](c2cc(F)ccc2F)N(c2ccn3ncc(NC(=O)c4cnccn4)c3n2)C1

>  <Standard Type>  (83) 
IC50

>  <Standard Relation>  (83) 
'='

>  <Standard Units>  (83) 
nM

>  <Standard Value>  (83) 
2.0

>  <Assay ChEMBL ID>  (83) 
CHEMBL3870940

>  <Assay Description>  (83) 
Inhibition of TrkA (unknown origin) by ELISA

>  <BAO Format ID>  (83) 
BAO_0000357

>  <BAO Label>  (83) 
single protein format

>  <Assay Organism>  (83) 
Homo sapiens

>  <Target ChEMBL ID>  (83) 
CHEMBL2815

>  <Target Name>  (83) 
Nerve growth factor receptor Trk-A

>  <Target Organism>  (83) 
Homo sapiens

>  <Target Type>  (83) 
SINGLE PROTEIN

>  <Document ChEMBL ID>  (83) 
CHEMBL3870334

>  <Source Description>  (83) 
Scientific Literature

>  <Document Journal>  (83) 
Bioorg Med Chem

>  <Document Year>  (83) 
2017.0

>  <Active>  (83) 
1.0

>  <bits>  (83) 
<rdkit.DataStructs.cDataStructs.ExplicitBitVect object at 0x00000159F5491D20>

>  <Group>  (83) 
G2

$$$$

     RDKit          2D

 27 30  0  0  0  0  0  0  0  0999 V2000
    0.0082   -5.1819    0.0000 C   0  0  0  0  0  0  0  0  0  0  0  0
    0.8899   -3.9684    0.0000 C   0  0  0  0  0  0  0  0  0  0  0  0
   -0.4091   -3.2184    0.0000 C   0  0  0  0  0  0  0  0  0  0  0  0
    2.0046   -4.9721    0.0000 C   0  0  0  0  0  0  0  0  0  0  0  0
    3.3037   -4.2221    0.0000 C   0  0  0  0  0  0  0  0  0  0  0  0
    2.9918   -2.7549    0.0000 C   0  0  0  0  0  0  0  0  0  0  0  0
    3.9955   -1.6402    0.0000 C   0  0  0  0  0  0  0  0  0  0  0  0
    3.5320   -0.2136    0.0000 C   0  0  0  0  0  0  0  0  0  0  0  0
    4.5356    0.9012    0.0000 C   0  0  0  0  0  0  0  0  0  0  0  0
    4.0721    2.3277    0.0000 F   0  0  0  0  0  0  0  0  0  0  0  0
    6.0029    0.5893    0.0000 C   0  0  0  0  0  0  0  0  0  0  0  0
    6.4664   -0.8373    0.0000 C   0  0  0  0  0  0  0  0  0  0  0  0
    5.4627   -1.9520    0.0000 C   0  0  0  0  0  0  0  0  0  0  0  0
    5.9262   -3.3786    0.0000 F   0  0  0  0  0  0  0  0  0  0  0  0
    1.5000   -2.5981    0.0000 N   0  0  0  0  0  0  0  0  0  0  0  0
    0.7500   -1.2990    0.0000 C   0  0  0  0  0  0  0  0  0  0  0  0
    1.5000    0.0000    0.0000 C   0  0  0  0  0  0  0  0  0  0  0  0
    0.7500    1.2990    0.0000 C   0  0  0  0  0  0  0  0  0  0  0  0
   -0.7500    1.2990    0.0000 N   0  0  0  0  0  0  0  0  0  0  0  0
   -1.7537    2.4138    0.0000 N   0  0  0  0  0  0  0  0  0  0  0  0
   -3.1240    1.8037    0.0000 C   0  0  0  0  0  0  0  0  0  0  0  0
   -2.9672    0.3119    0.0000 C   0  0  0  0  0  0  0  0  0  0  0  0
   -4.0819   -0.6918    0.0000 C   0  0  0  0  0  0  0  0  0  0  0  0
   -5.5085   -0.2283    0.0000 N   0  0  0  0  0  0  0  0  0  0  0  0
   -3.7701   -2.1590    0.0000 O   0  0  0  0  0  0  0  0  0  0  0  0
   -1.5000    0.0000    0.0000 C   0  0  0  0  0  0  0  0  0  0  0  0
   -0.7500   -1.2990    0.0000 N   0  0  0  0  0  0  0  0  0  0  0  0
  1  2  1  0
  2  3  1  0
  2  4  1  0
  4  5  1  0
  5  6  1  0
  6  7  1  1
  7  8  2  0
  8  9  1  0
  9 10  1  0
  9 11  2  0
 11 12  1  0
 12 13  2  0
 13 14  1  0
  6 15  1  0
 15 16  1  0
 16 17  1  0
 17 18  2  0
 18 19  1  0
 19 20  1  0
 20 21  2  0
 21 22  1  0
 22 23  1  0
 23 24  1  0
 23 25  2  0
 22 26  2  0
 26 27  1  0
 15  2  1  0
 27 16  2  0
 13  7  1  0
 26 19  1  0
M  END
>  <Compound_ID>  (84) 
CHEMBL3675943

>  <Molecule Name>  (84) 
nan

>  <Molecular Weight>  (84) 
371.39

>  <AlogP>  (84) 
3.23

>  <Smiles>  (84) 
CC1(C)CC[C@H](c2cc(F)ccc2F)N1c1ccn2ncc(C(N)=O)c2n1

>  <Standard Type>  (84) 
IC50

>  <Standard Relation>  (84) 
'='

>  <Standard Units>  (84) 
nM

>  <Standard Value>  (84) 
5.1

>  <Assay ChEMBL ID>  (84) 
CHEMBL3887070

>  <Assay Description>  (84) 
ELISA Assay: An enzyme-linked immunosorbant assay (ELISA) was used to assess TrkA kinase activity in the presence of inhibitors. Immulon 4HBX 384-well microtiter plates (Thermo part #8755) were coated with a 0.025 mg/mL solution of poly (Glu, Ala, Tyr; 6:3:1; Sigma P3899). Various concentrations of test compound, 2.5 nM TrkA (Invitrogen Corp., histidine-tagged recombinant human TrkA, cytoplasmic domain), and 500 uM ATP were incubated for 25 minutes at ambient temperature in the coated plates while shaking The assay buffer consisted of 25 mM MOPS pH 7.5, 0.005% (v/v) Triton X-100 and 5 mM MgCl2. The reaction mixture was removed from the plate by washing with PBS containing 0.1% (v/v) Tween 20. The phosphorylated reaction product was detected using 0.2 ug/mL of a phosphotyrosine specific monoclonal antibody (clone PY20) conjugated to horseradish peroxidase in conjunction with the TMB Peroxidase Substrate System (KPL).

>  <BAO Format ID>  (84) 
BAO_0000357

>  <BAO Label>  (84) 
single protein format

>  <Assay Organism>  (84) 
None

>  <Target ChEMBL ID>  (84) 
CHEMBL2815

>  <Target Name>  (84) 
Nerve growth factor receptor Trk-A

>  <Target Organism>  (84) 
Homo sapiens

>  <Target Type>  (84) 
SINGLE PROTEIN

>  <Document ChEMBL ID>  (84) 
CHEMBL3638907

>  <Source Description>  (84) 
BindingDB Database

>  <Document Journal>  (84) 
nan

>  <Document Year>  (84) 
2014.0

>  <Active>  (84) 
1.0

>  <bits>  (84) 
<rdkit.DataStructs.cDataStructs.ExplicitBitVect object at 0x00000159F5492F80>

>  <Group>  (84) 
G2

$$$$

     RDKit          2D

 30 34  0  0  0  0  0  0  0  0999 V2000
   -3.7548   -2.1855    0.0000 O   0  0  0  0  0  0  0  0  0  0  0  0
   -2.6401   -3.1891    0.0000 C   0  0  0  0  0  0  0  0  0  0  0  0
   -2.9520   -4.6564    0.0000 N   0  0  0  0  0  0  0  0  0  0  0  0
   -4.3786   -5.1199    0.0000 C   0  0  0  0  0  0  0  0  0  0  0  0
   -4.8421   -6.5465    0.0000 C   0  0  0  0  0  0  0  0  0  0  0  0
   -6.3421   -6.5465    0.0000 C   0  0  0  0  0  0  0  0  0  0  0  0
   -6.8056   -5.1199    0.0000 C   0  0  0  0  0  0  0  0  0  0  0  0
   -8.2322   -4.6564    0.0000 O   0  0  0  0  0  0  0  0  0  0  0  0
   -5.5921   -4.2382    0.0000 C   0  0  0  0  0  0  0  0  0  0  0  0
   -1.2135   -2.7256    0.0000 C   0  0  0  0  0  0  0  0  0  0  0  0
   -0.0000   -3.6073    0.0000 C   0  0  0  0  0  0  0  0  0  0  0  0
    1.2135   -2.7256    0.0000 N   0  0  0  0  0  0  0  0  0  0  0  0
    0.7500   -1.2990    0.0000 N   0  0  0  0  0  0  0  0  0  0  0  0
    1.5000    0.0000    0.0000 C   0  0  0  0  0  0  0  0  0  0  0  0
    0.7500    1.2990    0.0000 C   0  0  0  0  0  0  0  0  0  0  0  0
   -0.7500    1.2990    0.0000 C   0  0  0  0  0  0  0  0  0  0  0  0
   -1.5000    2.5981    0.0000 N   0  0  0  0  0  0  0  0  0  0  0  0
   -2.9918    2.7549    0.0000 C   0  0  0  0  0  0  0  0  0  0  0  0
   -3.3037    4.2221    0.0000 C   0  0  0  0  0  0  0  0  0  0  0  0
   -2.0046    4.9721    0.0000 C   0  0  0  0  0  0  0  0  0  0  0  0
   -0.8899    3.9684    0.0000 C   0  0  0  0  0  0  0  0  0  0  0  0
    0.5773    4.2803    0.0000 C   0  0  0  0  0  0  0  0  0  0  0  0
    1.5810    3.1655    0.0000 C   0  0  0  0  0  0  0  0  0  0  0  0
    3.0482    3.4774    0.0000 N   0  0  0  0  0  0  0  0  0  0  0  0
    3.5118    4.9040    0.0000 C   0  0  0  0  0  0  0  0  0  0  0  0
    2.5081    6.0187    0.0000 C   0  0  0  0  0  0  0  0  0  0  0  0
    2.9716    7.4453    0.0000 F   0  0  0  0  0  0  0  0  0  0  0  0
    1.0409    5.7068    0.0000 C   0  0  0  0  0  0  0  0  0  0  0  0
   -1.5000    0.0000    0.0000 N   0  0  0  0  0  0  0  0  0  0  0  0
   -0.7500   -1.2990    0.0000 C   0  0  0  0  0  0  0  0  0  0  0  0
  1  2  2  0
  2  3  1  0
  4  3  1  1
  4  5  1  0
  5  6  1  0
  6  7  1  0
  7  8  1  6
  7  9  1  0
  2 10  1  0
 10 11  1  0
 11 12  2  0
 12 13  1  0
 13 14  1  0
 14 15  2  0
 15 16  1  0
 16 17  1  0
 17 18  1  0
 18 19  1  0
 19 20  1  0
 20 21  1  0
 21 22  1  0
 22 23  2  0
 23 24  1  0
 24 25  2  0
 25 26  1  0
 26 27  1  0
 26 28  2  0
 16 29  2  0
 29 30  1  0
  9  4  1  0
 30 10  2  0
 30 13  1  0
 21 17  1  0
 28 22  1  0
M  END
>  <Compound_ID>  (85) 
CHEMBL3675979

>  <Molecule Name>  (85) 
nan

>  <Molecular Weight>  (85) 
410.45

>  <AlogP>  (85) 
2.25

>  <Smiles>  (85) 
O=C(N[C@H]1CC[C@H](O)C1)c1cnn2ccc(N3CCCC3c3cncc(F)c3)nc12

>  <Standard Type>  (85) 
IC50

>  <Standard Relation>  (85) 
'='

>  <Standard Units>  (85) 
nM

>  <Standard Value>  (85) 
25.4

>  <Assay ChEMBL ID>  (85) 
CHEMBL3887070

>  <Assay Description>  (85) 
ELISA Assay: An enzyme-linked immunosorbant assay (ELISA) was used to assess TrkA kinase activity in the presence of inhibitors. Immulon 4HBX 384-well microtiter plates (Thermo part #8755) were coated with a 0.025 mg/mL solution of poly (Glu, Ala, Tyr; 6:3:1; Sigma P3899). Various concentrations of test compound, 2.5 nM TrkA (Invitrogen Corp., histidine-tagged recombinant human TrkA, cytoplasmic domain), and 500 uM ATP were incubated for 25 minutes at ambient temperature in the coated plates while shaking The assay buffer consisted of 25 mM MOPS pH 7.5, 0.005% (v/v) Triton X-100 and 5 mM MgCl2. The reaction mixture was removed from the plate by washing with PBS containing 0.1% (v/v) Tween 20. The phosphorylated reaction product was detected using 0.2 ug/mL of a phosphotyrosine specific monoclonal antibody (clone PY20) conjugated to horseradish peroxidase in conjunction with the TMB Peroxidase Substrate System (KPL).

>  <BAO Format ID>  (85) 
BAO_0000357

>  <BAO Label>  (85) 
single protein format

>  <Assay Organism>  (85) 
None

>  <Target ChEMBL ID>  (85) 
CHEMBL2815

>  <Target Name>  (85) 
Nerve growth factor receptor Trk-A

>  <Target Organism>  (85) 
Homo sapiens

>  <Target Type>  (85) 
SINGLE PROTEIN

>  <Document ChEMBL ID>  (85) 
CHEMBL3638907

>  <Source Description>  (85) 
BindingDB Database

>  <Document Journal>  (85) 
nan

>  <Document Year>  (85) 
2014.0

>  <Active>  (85) 
1.0

>  <bits>  (85) 
<rdkit.DataStructs.cDataStructs.ExplicitBitVect object at 0x00000159F5491CB0>

>  <Group>  (85) 
G2

$$$$

     RDKit          2D

 29 32  0  0  0  0  0  0  0  0999 V2000
   -3.9150   -6.5465    0.0000 C   0  0  0  0  0  0  0  0  0  0  0  0
   -4.3786   -5.1199    0.0000 C   0  0  0  0  0  0  0  0  0  0  0  0
   -4.8421   -3.6933    0.0000 C   0  0  0  0  0  0  0  0  0  0  0  0
   -5.8051   -5.5834    0.0000 C   0  0  0  0  0  0  0  0  0  0  0  0
   -6.9199   -4.5797    0.0000 F   0  0  0  0  0  0  0  0  0  0  0  0
   -2.9520   -4.6564    0.0000 N   0  0  0  0  0  0  0  0  0  0  0  0
   -2.6401   -3.1891    0.0000 C   0  0  0  0  0  0  0  0  0  0  0  0
   -3.7548   -2.1855    0.0000 O   0  0  0  0  0  0  0  0  0  0  0  0
   -1.2135   -2.7256    0.0000 C   0  0  0  0  0  0  0  0  0  0  0  0
   -0.0000   -3.6073    0.0000 C   0  0  0  0  0  0  0  0  0  0  0  0
    1.2135   -2.7256    0.0000 N   0  0  0  0  0  0  0  0  0  0  0  0
    0.7500   -1.2990    0.0000 N   0  0  0  0  0  0  0  0  0  0  0  0
    1.5000    0.0000    0.0000 C   0  0  0  0  0  0  0  0  0  0  0  0
    0.7500    1.2990    0.0000 C   0  0  0  0  0  0  0  0  0  0  0  0
   -0.7500    1.2990    0.0000 C   0  0  0  0  0  0  0  0  0  0  0  0
   -1.5000    2.5981    0.0000 N   0  0  0  0  0  0  0  0  0  0  0  0
   -2.9918    2.7549    0.0000 C   0  0  0  0  0  0  0  0  0  0  0  0
   -3.3037    4.2221    0.0000 C   0  0  0  0  0  0  0  0  0  0  0  0
   -2.0046    4.9721    0.0000 C   0  0  0  0  0  0  0  0  0  0  0  0
   -0.8899    3.9684    0.0000 C   0  0  0  0  0  0  0  0  0  0  0  0
    0.5773    4.2803    0.0000 C   0  0  0  0  0  0  0  0  0  0  0  0
    1.5810    3.1655    0.0000 C   0  0  0  0  0  0  0  0  0  0  0  0
    3.0482    3.4774    0.0000 N   0  0  0  0  0  0  0  0  0  0  0  0
    3.5118    4.9040    0.0000 C   0  0  0  0  0  0  0  0  0  0  0  0
    2.5081    6.0187    0.0000 C   0  0  0  0  0  0  0  0  0  0  0  0
    2.9716    7.4453    0.0000 F   0  0  0  0  0  0  0  0  0  0  0  0
    1.0409    5.7068    0.0000 C   0  0  0  0  0  0  0  0  0  0  0  0
   -1.5000    0.0000    0.0000 N   0  0  0  0  0  0  0  0  0  0  0  0
   -0.7500   -1.2990    0.0000 C   0  0  0  0  0  0  0  0  0  0  0  0
  1  2  1  0
  2  3  1  0
  2  4  1  0
  4  5  1  0
  2  6  1  0
  6  7  1  0
  7  8  2  0
  7  9  1  0
  9 10  1  0
 10 11  2  0
 11 12  1  0
 12 13  1  0
 13 14  2  0
 14 15  1  0
 15 16  1  0
 16 17  1  0
 17 18  1  0
 18 19  1  0
 19 20  1  0
 20 21  1  6
 21 22  2  0
 22 23  1  0
 23 24  2  0
 24 25  1  0
 25 26  1  0
 25 27  2  0
 15 28  2  0
 28 29  1  0
 29  9  2  0
 29 12  1  0
 20 16  1  0
 27 21  1  0
M  END
>  <Compound_ID>  (86) 
CHEMBL3675946

>  <Molecule Name>  (86) 
nan

>  <Molecular Weight>  (86) 
400.43

>  <AlogP>  (86) 
3.08

>  <Smiles>  (86) 
CC(C)(CF)NC(=O)c1cnn2ccc(N3CCC[C@@H]3c3cncc(F)c3)nc12

>  <Standard Type>  (86) 
IC50

>  <Standard Relation>  (86) 
'='

>  <Standard Units>  (86) 
nM

>  <Standard Value>  (86) 
8.65

>  <Assay ChEMBL ID>  (86) 
CHEMBL3887070

>  <Assay Description>  (86) 
ELISA Assay: An enzyme-linked immunosorbant assay (ELISA) was used to assess TrkA kinase activity in the presence of inhibitors. Immulon 4HBX 384-well microtiter plates (Thermo part #8755) were coated with a 0.025 mg/mL solution of poly (Glu, Ala, Tyr; 6:3:1; Sigma P3899). Various concentrations of test compound, 2.5 nM TrkA (Invitrogen Corp., histidine-tagged recombinant human TrkA, cytoplasmic domain), and 500 uM ATP were incubated for 25 minutes at ambient temperature in the coated plates while shaking The assay buffer consisted of 25 mM MOPS pH 7.5, 0.005% (v/v) Triton X-100 and 5 mM MgCl2. The reaction mixture was removed from the plate by washing with PBS containing 0.1% (v/v) Tween 20. The phosphorylated reaction product was detected using 0.2 ug/mL of a phosphotyrosine specific monoclonal antibody (clone PY20) conjugated to horseradish peroxidase in conjunction with the TMB Peroxidase Substrate System (KPL).

>  <BAO Format ID>  (86) 
BAO_0000357

>  <BAO Label>  (86) 
single protein format

>  <Assay Organism>  (86) 
None

>  <Target ChEMBL ID>  (86) 
CHEMBL2815

>  <Target Name>  (86) 
Nerve growth factor receptor Trk-A

>  <Target Organism>  (86) 
Homo sapiens

>  <Target Type>  (86) 
SINGLE PROTEIN

>  <Document ChEMBL ID>  (86) 
CHEMBL3638907

>  <Source Description>  (86) 
BindingDB Database

>  <Document Journal>  (86) 
nan

>  <Document Year>  (86) 
2014.0

>  <Active>  (86) 
1.0

>  <bits>  (86) 
<rdkit.DataStructs.cDataStructs.ExplicitBitVect object at 0x00000159F5491C40>

>  <Group>  (86) 
G2

$$$$

     RDKit          2D

 35 38  0  0  0  0  0  0  0  0999 V2000
   -2.1766   -4.6157    0.0000 C   0  0  0  0  0  0  0  0  0  0  0  0
   -2.6401   -3.1891    0.0000 C   0  0  0  0  0  0  0  0  0  0  0  0
   -3.1036   -1.7626    0.0000 C   0  0  0  0  0  0  0  0  0  0  0  0
   -4.0667   -3.6527    0.0000 C   0  0  0  0  0  0  0  0  0  0  0  0
   -5.1814   -2.6490    0.0000 O   0  0  0  0  0  0  0  0  0  0  0  0
   -1.2135   -2.7256    0.0000 N   0  0  0  0  0  0  0  0  0  0  0  0
   -0.0000   -3.6073    0.0000 C   0  0  0  0  0  0  0  0  0  0  0  0
    1.2135   -2.7256    0.0000 C   0  0  0  0  0  0  0  0  0  0  0  0
    2.6401   -3.1891    0.0000 C   0  0  0  0  0  0  0  0  0  0  0  0
    3.7548   -2.1855    0.0000 O   0  0  0  0  0  0  0  0  0  0  0  0
    2.9520   -4.6564    0.0000 C   0  0  0  0  0  0  0  0  0  0  0  0
    1.8373   -5.6601    0.0000 C   0  0  0  0  0  0  0  0  0  0  0  0
    2.1491   -7.1273    0.0000 N   0  0  0  0  0  0  0  0  0  0  0  0
    3.5757   -7.5908    0.0000 C   0  0  0  0  0  0  0  0  0  0  0  0
    4.6904   -6.5871    0.0000 C   0  0  0  0  0  0  0  0  0  0  0  0
    6.1170   -7.0506    0.0000 N   0  0  0  0  0  0  0  0  0  0  0  0
    6.4289   -8.5179    0.0000 C   0  0  0  0  0  0  0  0  0  0  0  0
    5.3142   -9.5216    0.0000 O   0  0  0  0  0  0  0  0  0  0  0  0
    7.8555   -8.9814    0.0000 C   0  0  0  0  0  0  0  0  0  0  0  0
    8.1673  -10.4486    0.0000 C   0  0  0  0  0  0  0  0  0  0  0  0
    7.0526  -11.4523    0.0000 C   0  0  0  0  0  0  0  0  0  0  0  0
    7.3645  -12.9195    0.0000 C   0  0  0  0  0  0  0  0  0  0  0  0
    8.7911  -13.3831    0.0000 C   0  0  0  0  0  0  0  0  0  0  0  0
    9.1029  -14.8503    0.0000 C   0  0  0  0  0  0  0  0  0  0  0  0
    9.4148  -16.3175    0.0000 N   0  0  0  0  0  0  0  0  0  0  0  0
    9.9058  -12.3794    0.0000 C   0  0  0  0  0  0  0  0  0  0  0  0
    9.5939  -10.9121    0.0000 C   0  0  0  0  0  0  0  0  0  0  0  0
    4.3786   -5.1199    0.0000 C   0  0  0  0  0  0  0  0  0  0  0  0
    0.7500   -1.2990    0.0000 C   0  0  0  0  0  0  0  0  0  0  0  0
    1.5000    0.0000    0.0000 C   0  0  0  0  0  0  0  0  0  0  0  0
    0.7500    1.2990    0.0000 N   0  0  0  0  0  0  0  0  0  0  0  0
   -0.7500    1.2990    0.0000 C   0  0  0  0  0  0  0  0  0  0  0  0
   -1.5000    0.0000    0.0000 C   0  0  0  0  0  0  0  0  0  0  0  0
   -3.0000    0.0000    0.0000 F   0  0  0  0  0  0  0  0  0  0  0  0
   -0.7500   -1.2990    0.0000 C   0  0  0  0  0  0  0  0  0  0  0  0
  1  2  1  0
  2  3  1  0
  2  4  1  0
  4  5  1  0
  2  6  1  0
  6  7  1  0
  7  8  2  0
  8  9  1  0
  9 10  2  0
  9 11  1  0
 11 12  2  0
 12 13  1  0
 13 14  2  0
 14 15  1  0
 15 16  1  0
 16 17  1  0
 17 18  2  0
 17 19  1  0
 19 20  1  0
 20 21  2  0
 21 22  1  0
 22 23  2  0
 23 24  1  0
 24 25  3  0
 23 26  1  0
 26 27  2  0
 15 28  2  0
  8 29  1  0
 29 30  2  0
 30 31  1  0
 31 32  2  0
 32 33  1  0
 33 34  1  0
 33 35  2  0
 35  6  1  0
 28 11  1  0
 35 29  1  0
 27 20  1  0
M  END
>  <Compound_ID>  (87) 
CHEMBL3907552

>  <Molecule Name>  (87) 
nan

>  <Molecular Weight>  (87) 
471.49

>  <AlogP>  (87) 
3.58

>  <Smiles>  (87) 
CC(C)(CO)n1cc(C(=O)c2cncc(NC(=O)Cc3ccc(C#N)cc3)c2)c2cncc(F)c21

>  <Standard Type>  (87) 
IC50

>  <Standard Relation>  (87) 
'='

>  <Standard Units>  (87) 
nM

>  <Standard Value>  (87) 
39.8

>  <Assay ChEMBL ID>  (87) 
CHEMBL3887111

>  <Assay Description>  (87) 
HTRF Assay: Isolated TRK Enzyme assays use the HTRF KinEASE-TK kit (Cisbio Cat#62TK0PEJ) with recombinant His-tagged cytoplasmic domains of each TRK receptor sourced from Invitrogen (see table below). This activity-assay measures the phosphorylation of tyrosine residues within a substrate from the HTRF kit which has been validated by Cisbio for a variety of tyrosine kinases including the TRK receptors.Assay Details: Invitrogen Amino FAC FAC Assay ReactionTarget Cat# acids enzyme ATP TimeTRKA PV3144 aa 441-4 nM 40 uM 35 min (NTRK1) 796 TRKB PV3616 aa 526-1 nM 1.4 uM 40 min (NTRK2) 838 TRKC PV3617 aa 510- 10 nM 15 uM 30 min (NTRK3) 8250.5 mM stock solutions of test compounds are prepared and serially diluted in 100% DMSO. A standard curve using the compound of Example 135 disclosed in WO2005/116035 of 150 uM is also prepared on each test plate. High percentage effect (HPE) is defined by 150 uM.

>  <BAO Format ID>  (87) 
BAO_0000357

>  <BAO Label>  (87) 
single protein format

>  <Assay Organism>  (87) 
None

>  <Target ChEMBL ID>  (87) 
CHEMBL2815

>  <Target Name>  (87) 
Nerve growth factor receptor Trk-A

>  <Target Organism>  (87) 
Homo sapiens

>  <Target Type>  (87) 
SINGLE PROTEIN

>  <Document ChEMBL ID>  (87) 
CHEMBL3886170

>  <Source Description>  (87) 
BindingDB Database

>  <Document Journal>  (87) 
nan

>  <Document Year>  (87) 
2015.0

>  <Active>  (87) 
1.0

>  <bits>  (87) 
<rdkit.DataStructs.cDataStructs.ExplicitBitVect object at 0x00000159F54904A0>

>  <Group>  (87) 
G2

$$$$

     RDKit          2D

 45 50  0  0  0  0  0  0  0  0999 V2000
   -3.8971  -14.8573    0.0000 C   0  0  0  0  0  0  0  0  0  0  0  0
   -2.5981  -14.1073    0.0000 O   0  0  0  0  0  0  0  0  0  0  0  0
   -2.5981  -12.6073    0.0000 C   0  0  0  0  0  0  0  0  0  0  0  0
   -1.2990  -11.8573    0.0000 C   0  0  0  0  0  0  0  0  0  0  0  0
   -1.2990  -10.3573    0.0000 N   0  0  0  0  0  0  0  0  0  0  0  0
    0.0000   -9.6073    0.0000 C   0  0  0  0  0  0  0  0  0  0  0  0
    0.0000   -8.1073    0.0000 C   0  0  0  0  0  0  0  0  0  0  0  0
   -1.2990   -7.3573    0.0000 C   0  0  0  0  0  0  0  0  0  0  0  0
   -1.2990   -5.8573    0.0000 C   0  0  0  0  0  0  0  0  0  0  0  0
   -0.0000   -5.1073    0.0000 C   0  0  0  0  0  0  0  0  0  0  0  0
   -0.0000   -3.6073    0.0000 C   0  0  0  0  0  0  0  0  0  0  0  0
    1.2135   -2.7256    0.0000 C   0  0  0  0  0  0  0  0  0  0  0  0
    0.7500   -1.2990    0.0000 C   0  0  0  0  0  0  0  0  0  0  0  0
    1.5000    0.0000    0.0000 N   0  0  0  0  0  0  0  0  0  0  0  0
    0.7500    1.2990    0.0000 C   0  0  0  0  0  0  0  0  0  0  0  0
   -0.7500    1.2990    0.0000 C   0  0  0  0  0  0  0  0  0  0  0  0
   -1.5000    0.0000    0.0000 C   0  0  0  0  0  0  0  0  0  0  0  0
   -3.0000    0.0000    0.0000 O   0  0  0  0  0  0  0  0  0  0  0  0
   -3.7500    1.2990    0.0000 C   0  0  0  0  0  0  0  0  0  0  0  0
   -3.0000    2.5981    0.0000 C   0  0  0  0  0  0  0  0  0  0  0  0
   -3.7500    3.8971    0.0000 C   0  0  0  0  0  0  0  0  0  0  0  0
   -5.2500    3.8971    0.0000 C   0  0  0  0  0  0  0  0  0  0  0  0
   -6.0000    5.1962    0.0000 N   0  0  0  0  0  0  0  0  0  0  0  0
   -5.2500    6.4952    0.0000 C   0  0  0  0  0  0  0  0  0  0  0  0
   -3.7500    6.4952    0.0000 O   0  0  0  0  0  0  0  0  0  0  0  0
   -6.0000    7.7942    0.0000 C   0  0  0  0  0  0  0  0  0  0  0  0
   -7.4095    7.2812    0.0000 C   0  0  0  0  0  0  0  0  0  0  0  0
   -7.6700    5.8040    0.0000 O   0  0  0  0  0  0  0  0  0  0  0  0
   -8.5586    8.2454    0.0000 N   0  0  0  0  0  0  0  0  0  0  0  0
   -9.9681    7.7323    0.0000 C   0  0  0  0  0  0  0  0  0  0  0  0
  -11.1172    8.6965    0.0000 C   0  0  0  0  0  0  0  0  0  0  0  0
  -12.5268    8.1835    0.0000 C   0  0  0  0  0  0  0  0  0  0  0  0
  -12.7872    6.7063    0.0000 C   0  0  0  0  0  0  0  0  0  0  0  0
  -14.1968    6.1933    0.0000 F   0  0  0  0  0  0  0  0  0  0  0  0
  -11.6382    5.7421    0.0000 C   0  0  0  0  0  0  0  0  0  0  0  0
  -10.2286    6.2551    0.0000 C   0  0  0  0  0  0  0  0  0  0  0  0
   -6.2605    9.2714    0.0000 C   0  0  0  0  0  0  0  0  0  0  0  0
   -4.8509    8.7584    0.0000 C   0  0  0  0  0  0  0  0  0  0  0  0
   -6.0000    2.5981    0.0000 C   0  0  0  0  0  0  0  0  0  0  0  0
   -5.2500    1.2990    0.0000 C   0  0  0  0  0  0  0  0  0  0  0  0
   -6.0000    0.0000    0.0000 F   0  0  0  0  0  0  0  0  0  0  0  0
   -0.7500   -1.2990    0.0000 C   0  0  0  0  0  0  0  0  0  0  0  0
   -1.2135   -2.7256    0.0000 S   0  0  0  0  0  0  0  0  0  0  0  0
    1.2990   -5.8573    0.0000 N   0  0  0  0  0  0  0  0  0  0  0  0
    1.2990   -7.3573    0.0000 C   0  0  0  0  0  0  0  0  0  0  0  0
  1  2  1  0
  2  3  1  0
  3  4  1  0
  4  5  1  0
  5  6  1  0
  6  7  1  0
  7  8  2  0
  8  9  1  0
  9 10  2  0
 10 11  1  0
 11 12  2  0
 12 13  1  0
 13 14  2  0
 14 15  1  0
 15 16  2  0
 16 17  1  0
 17 18  1  0
 18 19  1  0
 19 20  2  0
 20 21  1  0
 21 22  2  0
 22 23  1  0
 23 24  1  0
 24 25  2  0
 24 26  1  0
 26 27  1  0
 27 28  2  0
 27 29  1  0
 29 30  1  0
 30 31  2  0
 31 32  1  0
 32 33  2  0
 33 34  1  0
 33 35  1  0
 35 36  2  0
 26 37  1  0
 37 38  1  0
 22 39  1  0
 39 40  2  0
 40 41  1  0
 17 42  2  0
 42 43  1  0
 10 44  1  0
 44 45  2  0
 45  7  1  0
 43 11  1  0
 42 13  1  0
 40 19  1  0
 38 26  1  0
 36 30  1  0
M  END
>  <Compound_ID>  (88) 
CHEMBL3989926

>  <Molecule Name>  (88) 
SITRAVATINIB

>  <Molecular Weight>  (88) 
629.69

>  <AlogP>  (88) 
6.52

>  <Smiles>  (88) 
COCCNCc1ccc(-c2cc3nccc(Oc4ccc(NC(=O)C5(C(=O)Nc6ccc(F)cc6)CC5)cc4F)c3s2)nc1

>  <Standard Type>  (88) 
IC50

>  <Standard Relation>  (88) 
'='

>  <Standard Units>  (88) 
nM

>  <Standard Value>  (88) 
5.0

>  <Assay ChEMBL ID>  (88) 
CHEMBL4330191

>  <Assay Description>  (88) 
Inhibition of TRKA (unknown origin)

>  <BAO Format ID>  (88) 
BAO_0000357

>  <BAO Label>  (88) 
single protein format

>  <Assay Organism>  (88) 
Homo sapiens

>  <Target ChEMBL ID>  (88) 
CHEMBL2815

>  <Target Name>  (88) 
Nerve growth factor receptor Trk-A

>  <Target Organism>  (88) 
Homo sapiens

>  <Target Type>  (88) 
SINGLE PROTEIN

>  <Document ChEMBL ID>  (88) 
CHEMBL4330054

>  <Source Description>  (88) 
Scientific Literature

>  <Document Journal>  (88) 
J Med Chem

>  <Document Year>  (88) 
2019.0

>  <Active>  (88) 
1.0

>  <bits>  (88) 
<rdkit.DataStructs.cDataStructs.ExplicitBitVect object at 0x00000159F5491AF0>

>  <Group>  (88) 
G2

$$$$

     RDKit          2D

 32 36  0  0  0  0  0  0  0  0999 V2000
   -2.9520   -4.6564    0.0000 C   0  0  0  0  0  0  0  0  0  0  0  0
   -2.6401   -3.1891    0.0000 C   0  0  0  0  0  0  0  0  0  0  0  0
   -3.7548   -2.1855    0.0000 C   0  0  0  0  0  0  0  0  0  0  0  0
   -1.2135   -2.7256    0.0000 N   0  0  0  0  0  0  0  0  0  0  0  0
   -0.0000   -3.6073    0.0000 C   0  0  0  0  0  0  0  0  0  0  0  0
    1.2135   -2.7256    0.0000 C   0  0  0  0  0  0  0  0  0  0  0  0
    2.6401   -3.1891    0.0000 C   0  0  0  0  0  0  0  0  0  0  0  0
    3.7548   -2.1855    0.0000 O   0  0  0  0  0  0  0  0  0  0  0  0
    2.9520   -4.6564    0.0000 C   0  0  0  0  0  0  0  0  0  0  0  0
    1.8373   -5.6601    0.0000 C   0  0  0  0  0  0  0  0  0  0  0  0
    2.1491   -7.1273    0.0000 N   0  0  0  0  0  0  0  0  0  0  0  0
    3.5757   -7.5908    0.0000 C   0  0  0  0  0  0  0  0  0  0  0  0
    4.6904   -6.5871    0.0000 C   0  0  0  0  0  0  0  0  0  0  0  0
    6.1170   -7.0506    0.0000 N   0  0  0  0  0  0  0  0  0  0  0  0
    6.4289   -8.5179    0.0000 C   0  0  0  0  0  0  0  0  0  0  0  0
    5.3142   -9.5216    0.0000 O   0  0  0  0  0  0  0  0  0  0  0  0
    7.8555   -8.9814    0.0000 C   0  0  0  0  0  0  0  0  0  0  0  0
    8.9702   -7.9777    0.0000 C   0  0  0  0  0  0  0  0  0  0  0  0
   10.3968   -8.4412    0.0000 C   0  0  0  0  0  0  0  0  0  0  0  0
   10.7086   -9.9084    0.0000 C   0  0  0  0  0  0  0  0  0  0  0  0
   12.0077  -10.6584    0.0000 C   0  0  0  0  0  0  0  0  0  0  0  0
   11.6958  -12.1257    0.0000 C   0  0  0  0  0  0  0  0  0  0  0  0
   10.2040  -12.2825    0.0000 N   0  0  0  0  0  0  0  0  0  0  0  0
    9.5939  -10.9121    0.0000 C   0  0  0  0  0  0  0  0  0  0  0  0
    8.1673  -10.4486    0.0000 N   0  0  0  0  0  0  0  0  0  0  0  0
    4.3786   -5.1199    0.0000 C   0  0  0  0  0  0  0  0  0  0  0  0
    0.7500   -1.2990    0.0000 C   0  0  0  0  0  0  0  0  0  0  0  0
    1.5000    0.0000    0.0000 C   0  0  0  0  0  0  0  0  0  0  0  0
    0.7500    1.2990    0.0000 N   0  0  0  0  0  0  0  0  0  0  0  0
   -0.7500    1.2990    0.0000 C   0  0  0  0  0  0  0  0  0  0  0  0
   -1.5000    0.0000    0.0000 N   0  0  0  0  0  0  0  0  0  0  0  0
   -0.7500   -1.2990    0.0000 C   0  0  0  0  0  0  0  0  0  0  0  0
  1  2  1  0
  2  3  1  0
  2  4  1  0
  4  5  1  0
  5  6  2  0
  6  7  1  0
  7  8  2  0
  7  9  1  0
  9 10  2  0
 10 11  1  0
 11 12  2  0
 12 13  1  0
 13 14  1  0
 14 15  1  0
 15 16  2  0
 15 17  1  0
 17 18  2  0
 18 19  1  0
 19 20  2  0
 20 21  1  0
 21 22  2  0
 22 23  1  0
 23 24  1  0
 24 25  2  0
 13 26  2  0
  6 27  1  0
 27 28  2  0
 28 29  1  0
 29 30  2  0
 30 31  1  0
 31 32  2  0
 32  4  1  0
 26  9  1  0
 32 27  1  0
 25 17  1  0
 24 20  1  0
M  END
>  <Compound_ID>  (89) 
CHEMBL3666401

>  <Molecule Name>  (89) 
nan

>  <Molecular Weight>  (89) 
425.45

>  <AlogP>  (89) 
3.77

>  <Smiles>  (89) 
CC(C)n1cc(C(=O)c2cncc(NC(=O)c3ccc4cc[nH]c4n3)c2)c2cncnc21

>  <Standard Type>  (89) 
IC50

>  <Standard Relation>  (89) 
'='

>  <Standard Units>  (89) 
nM

>  <Standard Value>  (89) 
40.2

>  <Assay ChEMBL ID>  (89) 
CHEMBL3887033

>  <Assay Description>  (89) 
Enzyme Assay: Isolated TRK Enzyme assays use the HTRF KinEASE-TK kit (Cisbio Cat# 62TK0PEJ) with recombinant His-tagged cytoplasmic domains of each TRK receptor sourced from Invitrogen (see table below). This activity-assay measures the phosphorylation of tyrosine residues within a substrate from the HTRF kit which has been validated by Cisbio for a variety of tyrosine kinases including the TRK receptors. Assay details: Target:TRKA; Invitrogen Cat# PV3144; Amino acids:aa 441-796; FAC enzyme:4nM; FAC ATP:40uM; Assay Reaction Time:35min.

>  <BAO Format ID>  (89) 
BAO_0000357

>  <BAO Label>  (89) 
single protein format

>  <Assay Organism>  (89) 
None

>  <Target ChEMBL ID>  (89) 
CHEMBL2815

>  <Target Name>  (89) 
Nerve growth factor receptor Trk-A

>  <Target Organism>  (89) 
Homo sapiens

>  <Target Type>  (89) 
SINGLE PROTEIN

>  <Document ChEMBL ID>  (89) 
CHEMBL3639348

>  <Source Description>  (89) 
BindingDB Database

>  <Document Journal>  (89) 
nan

>  <Document Year>  (89) 
2014.0

>  <Active>  (89) 
1.0

>  <bits>  (89) 
<rdkit.DataStructs.cDataStructs.ExplicitBitVect object at 0x00000159F5492F10>

>  <Group>  (89) 
G2

$$$$

     RDKit          2D

 36 40  0  0  0  0  0  0  0  0999 V2000
  -10.8878   -4.5031    0.0000 C   0  0  0  0  0  0  0  0  0  0  0  0
   -9.7730   -5.5068    0.0000 S   0  0  0  0  0  0  0  0  0  0  0  0
   -8.7693   -4.3921    0.0000 O   0  0  0  0  0  0  0  0  0  0  0  0
  -10.7767   -6.6215    0.0000 O   0  0  0  0  0  0  0  0  0  0  0  0
   -8.6583   -6.5105    0.0000 N   0  0  0  0  0  0  0  0  0  0  0  0
   -7.2317   -6.0469    0.0000 C   0  0  0  0  0  0  0  0  0  0  0  0
   -6.9199   -4.5797    0.0000 C   0  0  0  0  0  0  0  0  0  0  0  0
   -5.4933   -4.1162    0.0000 C   0  0  0  0  0  0  0  0  0  0  0  0
   -4.3786   -5.1199    0.0000 C   0  0  0  0  0  0  0  0  0  0  0  0
   -2.9520   -4.6564    0.0000 C   0  0  0  0  0  0  0  0  0  0  0  0
   -1.8373   -5.6601    0.0000 O   0  0  0  0  0  0  0  0  0  0  0  0
   -2.6401   -3.1891    0.0000 N   0  0  0  0  0  0  0  0  0  0  0  0
   -1.2135   -2.7256    0.0000 C   0  0  0  0  0  0  0  0  0  0  0  0
   -0.0000   -3.6073    0.0000 C   0  0  0  0  0  0  0  0  0  0  0  0
    1.2135   -2.7256    0.0000 N   0  0  0  0  0  0  0  0  0  0  0  0
    0.7500   -1.2990    0.0000 C   0  0  0  0  0  0  0  0  0  0  0  0
    1.5000    0.0000    0.0000 C   0  0  0  0  0  0  0  0  0  0  0  0
    0.7500    1.2990    0.0000 C   0  0  0  0  0  0  0  0  0  0  0  0
   -0.7500    1.2990    0.0000 C   0  0  0  0  0  0  0  0  0  0  0  0
   -1.5000    2.5981    0.0000 N   0  0  0  0  0  0  0  0  0  0  0  0
   -2.9918    2.7549    0.0000 C   0  0  0  0  0  0  0  0  0  0  0  0
   -3.3037    4.2221    0.0000 C   0  0  0  0  0  0  0  0  0  0  0  0
   -2.0046    4.9721    0.0000 C   0  0  0  0  0  0  0  0  0  0  0  0
   -0.8899    3.9684    0.0000 C   0  0  0  0  0  0  0  0  0  0  0  0
    0.5773    4.2803    0.0000 C   0  0  0  0  0  0  0  0  0  0  0  0
    1.5810    3.1655    0.0000 C   0  0  0  0  0  0  0  0  0  0  0  0
    3.0482    3.4774    0.0000 C   0  0  0  0  0  0  0  0  0  0  0  0
    4.0519    2.3627    0.0000 F   0  0  0  0  0  0  0  0  0  0  0  0
    3.5118    4.9040    0.0000 C   0  0  0  0  0  0  0  0  0  0  0  0
    2.5081    6.0187    0.0000 C   0  0  0  0  0  0  0  0  0  0  0  0
    1.0409    5.7068    0.0000 C   0  0  0  0  0  0  0  0  0  0  0  0
    0.0372    6.8216    0.0000 F   0  0  0  0  0  0  0  0  0  0  0  0
   -1.5000    0.0000    0.0000 N   0  0  0  0  0  0  0  0  0  0  0  0
   -0.7500   -1.2990    0.0000 N   0  0  0  0  0  0  0  0  0  0  0  0
   -4.6904   -6.5871    0.0000 C   0  0  0  0  0  0  0  0  0  0  0  0
   -6.1170   -7.0506    0.0000 C   0  0  0  0  0  0  0  0  0  0  0  0
  1  2  1  0
  2  3  2  0
  2  4  2  0
  2  5  1  0
  5  6  1  0
  6  7  2  0
  7  8  1  0
  8  9  2  0
  9 10  1  0
 10 11  2  0
 10 12  1  0
 12 13  1  0
 13 14  2  0
 14 15  1  0
 15 16  2  0
 16 17  1  0
 17 18  2  0
 18 19  1  0
 19 20  1  0
 20 21  1  0
 21 22  1  0
 22 23  1  0
 23 24  1  0
 24 25  1  6
 25 26  2  0
 26 27  1  0
 27 28  1  0
 27 29  2  0
 29 30  1  0
 30 31  2  0
 31 32  1  0
 19 33  2  0
 33 34  1  0
  9 35  1  0
 35 36  2  0
 36  6  1  0
 34 13  1  0
 34 16  1  0
 24 20  1  0
 31 25  1  0
M  END
>  <Compound_ID>  (90) 
CHEMBL4114304

>  <Molecule Name>  (90) 
nan

>  <Molecular Weight>  (90) 
512.54

>  <AlogP>  (90) 
3.97

>  <Smiles>  (90) 
CS(=O)(=O)Nc1ccc(C(=O)Nc2cnc3ccc(N4CCC[C@@H]4c4cc(F)ccc4F)nn23)cc1

>  <Standard Type>  (90) 
IC50

>  <Standard Relation>  (90) 
'='

>  <Standard Units>  (90) 
nM

>  <Standard Value>  (90) 
2.1

>  <Assay ChEMBL ID>  (90) 
CHEMBL3887826

>  <Assay Description>  (90) 
ELISA Assay: An enzyme-linked immunosorbant assay (ELISA) was used to assess TrkA kinase activity in the presence of inhibitors. Immulon 4HBX 384-well microtiter plates (Thermo part #8755) were coated with a 0.025 mg/mL solution of poly (Glu, Ala, Tyr; 6:3:1; Sigma P3899). Various concentrations of test compound, 2.5 nM TrkA (Invitrogen Corp., histidine-tagged recombinant human TrkA, cytoplasmic domain), and 500 uM ATP were incubated for 25 minutes at ambient temperature in the coated plates while shaking. The assay buffer consisted of 25 mM MOPS pH 7.5, 0.005% (v/v) Triton X-100 and 5 mM MgCl2. The reaction mixture was removed from the plate by washing with PBS containing 0.1% (v/v) Tween 20. The phosphorylated reaction product was detected using 0.2 ug/mL of a phosphotyrosine specific monoclonal antibody (clone PY20) conjugated to horseradish peroxidase in conjunction with the TMB Peroxidase Substrate System (KPL).

>  <BAO Format ID>  (90) 
BAO_0000357

>  <BAO Label>  (90) 
single protein format

>  <Assay Organism>  (90) 
None

>  <Target ChEMBL ID>  (90) 
CHEMBL2815

>  <Target Name>  (90) 
Nerve growth factor receptor Trk-A

>  <Target Organism>  (90) 
Homo sapiens

>  <Target Type>  (90) 
SINGLE PROTEIN

>  <Document ChEMBL ID>  (90) 
CHEMBL3886465

>  <Source Description>  (90) 
BindingDB Database

>  <Document Journal>  (90) 
nan

>  <Document Year>  (90) 
2016.0

>  <Active>  (90) 
1.0

>  <bits>  (90) 
<rdkit.DataStructs.cDataStructs.ExplicitBitVect object at 0x00000159F5491A10>

>  <Group>  (90) 
G2

$$$$

     RDKit          2D

 33 37  0  0  0  0  0  0  0  0999 V2000
   -7.3305   -4.6690    0.0000 C   0  0  0  0  0  0  0  0  0  0  0  0
   -7.3305   -6.1690    0.0000 N   0  0  0  0  0  0  0  0  0  0  0  0
   -8.5441   -7.0506    0.0000 C   0  0  0  0  0  0  0  0  0  0  0  0
   -8.0805   -8.4772    0.0000 N   0  0  0  0  0  0  0  0  0  0  0  0
   -6.5805   -8.4772    0.0000 C   0  0  0  0  0  0  0  0  0  0  0  0
   -6.1170   -7.0506    0.0000 C   0  0  0  0  0  0  0  0  0  0  0  0
   -4.6904   -6.5871    0.0000 C   0  0  0  0  0  0  0  0  0  0  0  0
   -4.3786   -5.1199    0.0000 C   0  0  0  0  0  0  0  0  0  0  0  0
   -2.9520   -4.6564    0.0000 N   0  0  0  0  0  0  0  0  0  0  0  0
   -2.6401   -3.1891    0.0000 C   0  0  0  0  0  0  0  0  0  0  0  0
   -3.7548   -2.1855    0.0000 O   0  0  0  0  0  0  0  0  0  0  0  0
   -1.2135   -2.7256    0.0000 C   0  0  0  0  0  0  0  0  0  0  0  0
   -0.0000   -3.6073    0.0000 C   0  0  0  0  0  0  0  0  0  0  0  0
    1.2135   -2.7256    0.0000 N   0  0  0  0  0  0  0  0  0  0  0  0
    0.7500   -1.2990    0.0000 N   0  0  0  0  0  0  0  0  0  0  0  0
    1.5000    0.0000    0.0000 C   0  0  0  0  0  0  0  0  0  0  0  0
    0.7500    1.2990    0.0000 C   0  0  0  0  0  0  0  0  0  0  0  0
   -0.7500    1.2990    0.0000 C   0  0  0  0  0  0  0  0  0  0  0  0
   -1.5000    2.5981    0.0000 N   0  0  0  0  0  0  0  0  0  0  0  0
   -2.9918    2.7549    0.0000 C   0  0  0  0  0  0  0  0  0  0  0  0
   -3.3037    4.2221    0.0000 C   0  0  0  0  0  0  0  0  0  0  0  0
   -2.0046    4.9721    0.0000 C   0  0  0  0  0  0  0  0  0  0  0  0
   -0.8899    3.9684    0.0000 C   0  0  0  0  0  0  0  0  0  0  0  0
    0.5773    4.2803    0.0000 C   0  0  0  0  0  0  0  0  0  0  0  0
    1.5810    3.1655    0.0000 C   0  0  0  0  0  0  0  0  0  0  0  0
    3.0482    3.4774    0.0000 C   0  0  0  0  0  0  0  0  0  0  0  0
    4.0519    2.3627    0.0000 F   0  0  0  0  0  0  0  0  0  0  0  0
    3.5118    4.9040    0.0000 C   0  0  0  0  0  0  0  0  0  0  0  0
    2.5081    6.0187    0.0000 C   0  0  0  0  0  0  0  0  0  0  0  0
    1.0409    5.7068    0.0000 C   0  0  0  0  0  0  0  0  0  0  0  0
    0.0372    6.8216    0.0000 F   0  0  0  0  0  0  0  0  0  0  0  0
   -1.5000    0.0000    0.0000 N   0  0  0  0  0  0  0  0  0  0  0  0
   -0.7500   -1.2990    0.0000 C   0  0  0  0  0  0  0  0  0  0  0  0
  1  2  1  0
  2  3  1  0
  3  4  2  0
  4  5  1  0
  5  6  2  0
  6  7  1  0
  7  8  1  0
  8  9  1  0
  9 10  1  0
 10 11  2  0
 10 12  1  0
 12 13  1  0
 13 14  2  0
 14 15  1  0
 15 16  1  0
 16 17  2  0
 17 18  1  0
 18 19  1  0
 19 20  1  0
 20 21  1  0
 21 22  1  0
 22 23  1  0
 23 24  1  6
 24 25  2  0
 25 26  1  0
 26 27  1  0
 26 28  2  0
 28 29  1  0
 29 30  2  0
 30 31  1  0
 18 32  2  0
 32 33  1  0
  6  2  1  0
 33 12  2  0
 33 15  1  0
 23 19  1  0
 30 24  1  0
M  END
>  <Compound_ID>  (91) 
CHEMBL3671151

>  <Molecule Name>  (91) 
nan

>  <Molecular Weight>  (91) 
451.48

>  <AlogP>  (91) 
3.06

>  <Smiles>  (91) 
Cn1cncc1CCNC(=O)c1cnn2ccc(N3CCC[C@@H]3c3cc(F)ccc3F)nc12

>  <Standard Type>  (91) 
IC50

>  <Standard Relation>  (91) 
'='

>  <Standard Units>  (91) 
nM

>  <Standard Value>  (91) 
1.1

>  <Assay ChEMBL ID>  (91) 
CHEMBL3887070

>  <Assay Description>  (91) 
ELISA Assay: An enzyme-linked immunosorbant assay (ELISA) was used to assess TrkA kinase activity in the presence of inhibitors. Immulon 4HBX 384-well microtiter plates (Thermo part #8755) were coated with a 0.025 mg/mL solution of poly (Glu, Ala, Tyr; 6:3:1; Sigma P3899). Various concentrations of test compound, 2.5 nM TrkA (Invitrogen Corp., histidine-tagged recombinant human TrkA, cytoplasmic domain), and 500 uM ATP were incubated for 25 minutes at ambient temperature in the coated plates while shaking The assay buffer consisted of 25 mM MOPS pH 7.5, 0.005% (v/v) Triton X-100 and 5 mM MgCl2. The reaction mixture was removed from the plate by washing with PBS containing 0.1% (v/v) Tween 20. The phosphorylated reaction product was detected using 0.2 ug/mL of a phosphotyrosine specific monoclonal antibody (clone PY20) conjugated to horseradish peroxidase in conjunction with the TMB Peroxidase Substrate System (KPL).

>  <BAO Format ID>  (91) 
BAO_0000357

>  <BAO Label>  (91) 
single protein format

>  <Assay Organism>  (91) 
None

>  <Target ChEMBL ID>  (91) 
CHEMBL2815

>  <Target Name>  (91) 
Nerve growth factor receptor Trk-A

>  <Target Organism>  (91) 
Homo sapiens

>  <Target Type>  (91) 
SINGLE PROTEIN

>  <Document ChEMBL ID>  (91) 
CHEMBL3638907

>  <Source Description>  (91) 
BindingDB Database

>  <Document Journal>  (91) 
nan

>  <Document Year>  (91) 
2014.0

>  <Active>  (91) 
1.0

>  <bits>  (91) 
<rdkit.DataStructs.cDataStructs.ExplicitBitVect object at 0x00000159F54919A0>

>  <Group>  (91) 
G2

$$$$

     RDKit          2D

 35 39  0  0  0  0  0  0  0  0999 V2000
  -10.0849   -6.9740    0.0000 N   0  0  0  0  0  0  0  0  0  0  0  0
   -8.6583   -6.5105    0.0000 S   0  0  0  0  0  0  0  0  0  0  0  0
   -8.1948   -7.9371    0.0000 O   0  0  0  0  0  0  0  0  0  0  0  0
   -9.1218   -5.0839    0.0000 O   0  0  0  0  0  0  0  0  0  0  0  0
   -7.2317   -6.0469    0.0000 N   0  0  0  0  0  0  0  0  0  0  0  0
   -6.9199   -4.5797    0.0000 C   0  0  0  0  0  0  0  0  0  0  0  0
   -5.4933   -4.1162    0.0000 C   0  0  0  0  0  0  0  0  0  0  0  0
   -4.3786   -5.1199    0.0000 C   0  0  0  0  0  0  0  0  0  0  0  0
   -2.9520   -4.6564    0.0000 N   0  0  0  0  0  0  0  0  0  0  0  0
   -2.6401   -3.1891    0.0000 C   0  0  0  0  0  0  0  0  0  0  0  0
   -3.7548   -2.1855    0.0000 O   0  0  0  0  0  0  0  0  0  0  0  0
   -1.2135   -2.7256    0.0000 C   0  0  0  0  0  0  0  0  0  0  0  0
   -0.0000   -3.6073    0.0000 C   0  0  0  0  0  0  0  0  0  0  0  0
    1.2135   -2.7256    0.0000 N   0  0  0  0  0  0  0  0  0  0  0  0
    0.7500   -1.2990    0.0000 N   0  0  0  0  0  0  0  0  0  0  0  0
    1.5000    0.0000    0.0000 C   0  0  0  0  0  0  0  0  0  0  0  0
    0.7500    1.2990    0.0000 C   0  0  0  0  0  0  0  0  0  0  0  0
   -0.7500    1.2990    0.0000 C   0  0  0  0  0  0  0  0  0  0  0  0
   -1.5000    2.5981    0.0000 N   0  0  0  0  0  0  0  0  0  0  0  0
   -2.9918    2.7549    0.0000 C   0  0  0  0  0  0  0  0  0  0  0  0
   -3.3037    4.2221    0.0000 C   0  0  0  0  0  0  0  0  0  0  0  0
   -2.0046    4.9721    0.0000 C   0  0  0  0  0  0  0  0  0  0  0  0
   -0.8899    3.9684    0.0000 C   0  0  0  0  0  0  0  0  0  0  0  0
    0.5773    4.2803    0.0000 C   0  0  0  0  0  0  0  0  0  0  0  0
    1.5810    3.1655    0.0000 C   0  0  0  0  0  0  0  0  0  0  0  0
    3.0482    3.4774    0.0000 C   0  0  0  0  0  0  0  0  0  0  0  0
    4.0519    2.3627    0.0000 F   0  0  0  0  0  0  0  0  0  0  0  0
    3.5118    4.9040    0.0000 C   0  0  0  0  0  0  0  0  0  0  0  0
    2.5081    6.0187    0.0000 C   0  0  0  0  0  0  0  0  0  0  0  0
    1.0409    5.7068    0.0000 C   0  0  0  0  0  0  0  0  0  0  0  0
    0.0372    6.8216    0.0000 F   0  0  0  0  0  0  0  0  0  0  0  0
   -1.5000    0.0000    0.0000 N   0  0  0  0  0  0  0  0  0  0  0  0
   -0.7500   -1.2990    0.0000 C   0  0  0  0  0  0  0  0  0  0  0  0
   -4.6904   -6.5871    0.0000 C   0  0  0  0  0  0  0  0  0  0  0  0
   -6.1170   -7.0506    0.0000 C   0  0  0  0  0  0  0  0  0  0  0  0
  1  2  1  0
  2  3  2  0
  2  4  2  0
  2  5  1  0
  5  6  1  0
  6  7  1  0
  7  8  1  0
  8  9  1  0
  9 10  1  0
 10 11  2  0
 10 12  1  0
 12 13  1  0
 13 14  2  0
 14 15  1  0
 15 16  1  0
 16 17  2  0
 17 18  1  0
 18 19  1  0
 19 20  1  0
 20 21  1  0
 21 22  1  0
 22 23  1  0
 23 24  1  0
 24 25  2  0
 25 26  1  0
 26 27  1  0
 26 28  2  0
 28 29  1  0
 29 30  2  0
 30 31  1  0
 18 32  2  0
 32 33  1  0
  8 34  1  0
 34 35  1  0
 35  5  1  0
 33 12  2  0
 33 15  1  0
 23 19  1  0
 30 24  1  0
M  END
>  <Compound_ID>  (92) 
CHEMBL3675923

>  <Molecule Name>  (92) 
nan

>  <Molecular Weight>  (92) 
505.55

>  <AlogP>  (92) 
1.75

>  <Smiles>  (92) 
NS(=O)(=O)N1CCC(NC(=O)c2cnn3ccc(N4CCCC4c4cc(F)ccc4F)nc23)CC1

>  <Standard Type>  (92) 
IC50

>  <Standard Relation>  (92) 
'='

>  <Standard Units>  (92) 
nM

>  <Standard Value>  (92) 
1.4

>  <Assay ChEMBL ID>  (92) 
CHEMBL3887070

>  <Assay Description>  (92) 
ELISA Assay: An enzyme-linked immunosorbant assay (ELISA) was used to assess TrkA kinase activity in the presence of inhibitors. Immulon 4HBX 384-well microtiter plates (Thermo part #8755) were coated with a 0.025 mg/mL solution of poly (Glu, Ala, Tyr; 6:3:1; Sigma P3899). Various concentrations of test compound, 2.5 nM TrkA (Invitrogen Corp., histidine-tagged recombinant human TrkA, cytoplasmic domain), and 500 uM ATP were incubated for 25 minutes at ambient temperature in the coated plates while shaking The assay buffer consisted of 25 mM MOPS pH 7.5, 0.005% (v/v) Triton X-100 and 5 mM MgCl2. The reaction mixture was removed from the plate by washing with PBS containing 0.1% (v/v) Tween 20. The phosphorylated reaction product was detected using 0.2 ug/mL of a phosphotyrosine specific monoclonal antibody (clone PY20) conjugated to horseradish peroxidase in conjunction with the TMB Peroxidase Substrate System (KPL).

>  <BAO Format ID>  (92) 
BAO_0000357

>  <BAO Label>  (92) 
single protein format

>  <Assay Organism>  (92) 
None

>  <Target ChEMBL ID>  (92) 
CHEMBL2815

>  <Target Name>  (92) 
Nerve growth factor receptor Trk-A

>  <Target Organism>  (92) 
Homo sapiens

>  <Target Type>  (92) 
SINGLE PROTEIN

>  <Document ChEMBL ID>  (92) 
CHEMBL3638907

>  <Source Description>  (92) 
BindingDB Database

>  <Document Journal>  (92) 
nan

>  <Document Year>  (92) 
2014.0

>  <Active>  (92) 
1.0

>  <bits>  (92) 
<rdkit.DataStructs.cDataStructs.ExplicitBitVect object at 0x00000159F54918C0>

>  <Group>  (92) 
G2

$$$$

     RDKit          2D

 33 36  0  0  0  0  0  0  0  0999 V2000
   -3.7548   -2.1855    0.0000 O   0  0  0  0  0  0  0  0  0  0  0  0
   -2.6401   -3.1891    0.0000 C   0  0  0  0  0  0  0  0  0  0  0  0
   -2.9520   -4.6564    0.0000 N   0  0  0  0  0  0  0  0  0  0  0  0
   -4.3786   -5.1199    0.0000 C   0  0  0  0  0  0  0  0  0  0  0  0
   -4.6904   -6.5871    0.0000 C   0  0  0  0  0  0  0  0  0  0  0  0
   -3.5757   -7.5908    0.0000 O   0  0  0  0  0  0  0  0  0  0  0  0
   -6.1170   -7.0506    0.0000 C   0  0  0  0  0  0  0  0  0  0  0  0
   -6.4289   -8.5179    0.0000 O   0  0  0  0  0  0  0  0  0  0  0  0
   -1.2135   -2.7256    0.0000 C   0  0  0  0  0  0  0  0  0  0  0  0
   -0.0000   -3.6073    0.0000 C   0  0  0  0  0  0  0  0  0  0  0  0
    1.2135   -2.7256    0.0000 N   0  0  0  0  0  0  0  0  0  0  0  0
    0.7500   -1.2990    0.0000 N   0  0  0  0  0  0  0  0  0  0  0  0
    1.5000    0.0000    0.0000 C   0  0  0  0  0  0  0  0  0  0  0  0
    0.7500    1.2990    0.0000 C   0  0  0  0  0  0  0  0  0  0  0  0
   -0.7500    1.2990    0.0000 C   0  0  0  0  0  0  0  0  0  0  0  0
   -1.5000    2.5981    0.0000 N   0  0  0  0  0  0  0  0  0  0  0  0
   -2.9918    2.7549    0.0000 C   0  0  0  0  0  0  0  0  0  0  0  0
   -3.3037    4.2221    0.0000 C   0  0  0  0  0  0  0  0  0  0  0  0
   -2.0046    4.9721    0.0000 C   0  0  0  0  0  0  0  0  0  0  0  0
   -0.8899    3.9684    0.0000 C   0  0  0  0  0  0  0  0  0  0  0  0
    0.5773    4.2803    0.0000 C   0  0  0  0  0  0  0  0  0  0  0  0
    1.5810    3.1655    0.0000 C   0  0  0  0  0  0  0  0  0  0  0  0
    3.0482    3.4774    0.0000 C   0  0  0  0  0  0  0  0  0  0  0  0
    4.0519    2.3627    0.0000 F   0  0  0  0  0  0  0  0  0  0  0  0
    3.5118    4.9040    0.0000 C   0  0  0  0  0  0  0  0  0  0  0  0
    2.5081    6.0187    0.0000 C   0  0  0  0  0  0  0  0  0  0  0  0
    1.0409    5.7068    0.0000 C   0  0  0  0  0  0  0  0  0  0  0  0
    0.0372    6.8216    0.0000 C   0  0  0  0  0  0  0  0  0  0  0  0
   -0.9665    7.9363    0.0000 F   0  0  0  0  0  0  0  0  0  0  0  0
    1.1519    7.8253    0.0000 F   0  0  0  0  0  0  0  0  0  0  0  0
   -1.0776    5.8179    0.0000 F   0  0  0  0  0  0  0  0  0  0  0  0
   -1.5000    0.0000    0.0000 N   0  0  0  0  0  0  0  0  0  0  0  0
   -0.7500   -1.2990    0.0000 C   0  0  0  0  0  0  0  0  0  0  0  0
  1  2  2  0
  2  3  1  0
  3  4  1  0
  4  5  1  0
  5  6  1  1
  5  7  1  0
  7  8  1  0
  2  9  1  0
  9 10  1  0
 10 11  2  0
 11 12  1  0
 12 13  1  0
 13 14  2  0
 14 15  1  0
 15 16  1  0
 16 17  1  0
 17 18  1  0
 18 19  1  0
 19 20  1  0
 20 21  1  6
 21 22  2  0
 22 23  1  0
 23 24  1  0
 23 25  2  0
 25 26  1  0
 26 27  2  0
 27 28  1  0
 28 29  1  0
 28 30  1  0
 28 31  1  0
 15 32  2  0
 32 33  1  0
 33  9  2  0
 33 12  1  0
 20 16  1  0
 27 21  1  0
M  END
>  <Compound_ID>  (93) 
CHEMBL3675939

>  <Molecule Name>  (93) 
nan

>  <Molecular Weight>  (93) 
467.42

>  <AlogP>  (93) 
2.31

>  <Smiles>  (93) 
O=C(NC[C@@H](O)CO)c1cnn2ccc(N3CCC[C@@H]3c3cc(F)ccc3C(F)(F)F)nc12

>  <Standard Type>  (93) 
IC50

>  <Standard Relation>  (93) 
'='

>  <Standard Units>  (93) 
nM

>  <Standard Value>  (93) 
4.55

>  <Assay ChEMBL ID>  (93) 
CHEMBL3887070

>  <Assay Description>  (93) 
ELISA Assay: An enzyme-linked immunosorbant assay (ELISA) was used to assess TrkA kinase activity in the presence of inhibitors. Immulon 4HBX 384-well microtiter plates (Thermo part #8755) were coated with a 0.025 mg/mL solution of poly (Glu, Ala, Tyr; 6:3:1; Sigma P3899). Various concentrations of test compound, 2.5 nM TrkA (Invitrogen Corp., histidine-tagged recombinant human TrkA, cytoplasmic domain), and 500 uM ATP were incubated for 25 minutes at ambient temperature in the coated plates while shaking The assay buffer consisted of 25 mM MOPS pH 7.5, 0.005% (v/v) Triton X-100 and 5 mM MgCl2. The reaction mixture was removed from the plate by washing with PBS containing 0.1% (v/v) Tween 20. The phosphorylated reaction product was detected using 0.2 ug/mL of a phosphotyrosine specific monoclonal antibody (clone PY20) conjugated to horseradish peroxidase in conjunction with the TMB Peroxidase Substrate System (KPL).

>  <BAO Format ID>  (93) 
BAO_0000357

>  <BAO Label>  (93) 
single protein format

>  <Assay Organism>  (93) 
None

>  <Target ChEMBL ID>  (93) 
CHEMBL2815

>  <Target Name>  (93) 
Nerve growth factor receptor Trk-A

>  <Target Organism>  (93) 
Homo sapiens

>  <Target Type>  (93) 
SINGLE PROTEIN

>  <Document ChEMBL ID>  (93) 
CHEMBL3638907

>  <Source Description>  (93) 
BindingDB Database

>  <Document Journal>  (93) 
nan

>  <Document Year>  (93) 
2014.0

>  <Active>  (93) 
1.0

>  <bits>  (93) 
<rdkit.DataStructs.cDataStructs.ExplicitBitVect object at 0x00000159F5491850>

>  <Group>  (93) 
G2

$$$$

     RDKit          2D

 35 39  0  0  0  0  0  0  0  0999 V2000
   -3.9150   -6.5465    0.0000 C   0  0  0  0  0  0  0  0  0  0  0  0
   -4.3786   -5.1199    0.0000 C   0  0  0  0  0  0  0  0  0  0  0  0
   -4.8421   -3.6933    0.0000 C   0  0  0  0  0  0  0  0  0  0  0  0
   -5.8051   -5.5834    0.0000 C   0  0  0  0  0  0  0  0  0  0  0  0
   -6.9199   -4.5797    0.0000 N   0  0  0  0  0  0  0  0  0  0  0  0
   -6.6080   -3.1125    0.0000 C   0  0  0  0  0  0  0  0  0  0  0  0
   -7.7227   -2.1088    0.0000 C   0  0  0  0  0  0  0  0  0  0  0  0
   -9.1493   -2.5723    0.0000 O   0  0  0  0  0  0  0  0  0  0  0  0
   -9.4612   -4.0396    0.0000 C   0  0  0  0  0  0  0  0  0  0  0  0
   -8.3464   -5.0433    0.0000 C   0  0  0  0  0  0  0  0  0  0  0  0
   -2.9520   -4.6564    0.0000 N   0  0  0  0  0  0  0  0  0  0  0  0
   -2.6401   -3.1891    0.0000 C   0  0  0  0  0  0  0  0  0  0  0  0
   -3.7548   -2.1855    0.0000 O   0  0  0  0  0  0  0  0  0  0  0  0
   -1.2135   -2.7256    0.0000 C   0  0  0  0  0  0  0  0  0  0  0  0
   -0.0000   -3.6073    0.0000 C   0  0  0  0  0  0  0  0  0  0  0  0
    1.2135   -2.7256    0.0000 N   0  0  0  0  0  0  0  0  0  0  0  0
    0.7500   -1.2990    0.0000 N   0  0  0  0  0  0  0  0  0  0  0  0
    1.5000    0.0000    0.0000 C   0  0  0  0  0  0  0  0  0  0  0  0
    0.7500    1.2990    0.0000 C   0  0  0  0  0  0  0  0  0  0  0  0
   -0.7500    1.2990    0.0000 C   0  0  0  0  0  0  0  0  0  0  0  0
   -1.5000    2.5981    0.0000 N   0  0  0  0  0  0  0  0  0  0  0  0
   -2.9918    2.7549    0.0000 C   0  0  0  0  0  0  0  0  0  0  0  0
   -3.3037    4.2221    0.0000 C   0  0  0  0  0  0  0  0  0  0  0  0
   -2.0046    4.9721    0.0000 C   0  0  0  0  0  0  0  0  0  0  0  0
   -0.8899    3.9684    0.0000 C   0  0  0  0  0  0  0  0  0  0  0  0
    0.5773    4.2803    0.0000 C   0  0  0  0  0  0  0  0  0  0  0  0
    1.5810    3.1655    0.0000 C   0  0  0  0  0  0  0  0  0  0  0  0
    3.0482    3.4774    0.0000 C   0  0  0  0  0  0  0  0  0  0  0  0
    4.0519    2.3627    0.0000 F   0  0  0  0  0  0  0  0  0  0  0  0
    3.5118    4.9040    0.0000 C   0  0  0  0  0  0  0  0  0  0  0  0
    2.5081    6.0187    0.0000 C   0  0  0  0  0  0  0  0  0  0  0  0
    1.0409    5.7068    0.0000 C   0  0  0  0  0  0  0  0  0  0  0  0
    0.0372    6.8216    0.0000 F   0  0  0  0  0  0  0  0  0  0  0  0
   -1.5000    0.0000    0.0000 N   0  0  0  0  0  0  0  0  0  0  0  0
   -0.7500   -1.2990    0.0000 C   0  0  0  0  0  0  0  0  0  0  0  0
  1  2  1  0
  2  3  1  0
  2  4  1  0
  4  5  1  0
  5  6  1  0
  6  7  1  0
  7  8  1  0
  8  9  1  0
  9 10  1  0
  2 11  1  0
 11 12  1  0
 12 13  2  0
 12 14  1  0
 14 15  1  0
 15 16  2  0
 16 17  1  0
 17 18  1  0
 18 19  2  0
 19 20  1  0
 20 21  1  0
 21 22  1  0
 22 23  1  0
 23 24  1  0
 24 25  1  0
 25 26  1  6
 26 27  2  0
 27 28  1  0
 28 29  1  0
 28 30  2  0
 30 31  1  0
 31 32  2  0
 32 33  1  0
 20 34  2  0
 34 35  1  0
 10  5  1  0
 35 14  2  0
 35 17  1  0
 25 21  1  0
 32 26  1  0
M  END
>  <Compound_ID>  (94) 
CHEMBL3671137

>  <Molecule Name>  (94) 
nan

>  <Molecular Weight>  (94) 
484.55

>  <AlogP>  (94) 
3.19

>  <Smiles>  (94) 
CC(C)(CN1CCOCC1)NC(=O)c1cnn2ccc(N3CCC[C@@H]3c3cc(F)ccc3F)nc12

>  <Standard Type>  (94) 
IC50

>  <Standard Relation>  (94) 
'='

>  <Standard Units>  (94) 
nM

>  <Standard Value>  (94) 
3.45

>  <Assay ChEMBL ID>  (94) 
CHEMBL3887070

>  <Assay Description>  (94) 
ELISA Assay: An enzyme-linked immunosorbant assay (ELISA) was used to assess TrkA kinase activity in the presence of inhibitors. Immulon 4HBX 384-well microtiter plates (Thermo part #8755) were coated with a 0.025 mg/mL solution of poly (Glu, Ala, Tyr; 6:3:1; Sigma P3899). Various concentrations of test compound, 2.5 nM TrkA (Invitrogen Corp., histidine-tagged recombinant human TrkA, cytoplasmic domain), and 500 uM ATP were incubated for 25 minutes at ambient temperature in the coated plates while shaking The assay buffer consisted of 25 mM MOPS pH 7.5, 0.005% (v/v) Triton X-100 and 5 mM MgCl2. The reaction mixture was removed from the plate by washing with PBS containing 0.1% (v/v) Tween 20. The phosphorylated reaction product was detected using 0.2 ug/mL of a phosphotyrosine specific monoclonal antibody (clone PY20) conjugated to horseradish peroxidase in conjunction with the TMB Peroxidase Substrate System (KPL).

>  <BAO Format ID>  (94) 
BAO_0000357

>  <BAO Label>  (94) 
single protein format

>  <Assay Organism>  (94) 
None

>  <Target ChEMBL ID>  (94) 
CHEMBL2815

>  <Target Name>  (94) 
Nerve growth factor receptor Trk-A

>  <Target Organism>  (94) 
Homo sapiens

>  <Target Type>  (94) 
SINGLE PROTEIN

>  <Document ChEMBL ID>  (94) 
CHEMBL3638907

>  <Source Description>  (94) 
BindingDB Database

>  <Document Journal>  (94) 
nan

>  <Document Year>  (94) 
2014.0

>  <Active>  (94) 
1.0

>  <bits>  (94) 
<rdkit.DataStructs.cDataStructs.ExplicitBitVect object at 0x00000159F54917E0>

>  <Group>  (94) 
G2

$$$$

     RDKit          2D

 34 38  0  0  0  0  0  0  0  0999 V2000
    3.7500   -1.2990    0.0000 C   0  0  0  0  0  0  0  0  0  0  0  0
    3.0000    0.0000    0.0000 O   0  0  0  0  0  0  0  0  0  0  0  0
    1.5000    0.0000    0.0000 C   0  0  0  0  0  0  0  0  0  0  0  0
    0.7500   -1.2990    0.0000 N   0  0  0  0  0  0  0  0  0  0  0  0
   -0.7500   -1.2990    0.0000 C   0  0  0  0  0  0  0  0  0  0  0  0
   -1.5000    0.0000    0.0000 C   0  0  0  0  0  0  0  0  0  0  0  0
   -0.7500    1.2990    0.0000 N   0  0  0  0  0  0  0  0  0  0  0  0
   -1.2135    2.7256    0.0000 C   0  0  0  0  0  0  0  0  0  0  0  0
   -0.0000    3.6073    0.0000 C   0  0  0  0  0  0  0  0  0  0  0  0
   -0.0000    5.1073    0.0000 C   0  0  0  0  0  0  0  0  0  0  0  0
   -1.2990    5.8573    0.0000 O   0  0  0  0  0  0  0  0  0  0  0  0
    1.2990    5.8573    0.0000 N   0  0  0  0  0  0  0  0  0  0  0  0
    1.2990    7.3573    0.0000 C   0  0  0  0  0  0  0  0  0  0  0  0
    2.5981    8.1073    0.0000 C   0  0  0  0  0  0  0  0  0  0  0  0
    2.5981    9.6073    0.0000 N   0  0  0  0  0  0  0  0  0  0  0  0
    1.2990   10.3573    0.0000 C   0  0  0  0  0  0  0  0  0  0  0  0
   -0.0000    9.6073    0.0000 C   0  0  0  0  0  0  0  0  0  0  0  0
   -1.2990   10.3573    0.0000 C   0  0  0  0  0  0  0  0  0  0  0  0
   -2.5981    9.6073    0.0000 O   0  0  0  0  0  0  0  0  0  0  0  0
   -1.2990   11.8573    0.0000 C   0  0  0  0  0  0  0  0  0  0  0  0
   -0.0855   12.7390    0.0000 C   0  0  0  0  0  0  0  0  0  0  0  0
   -0.5490   14.1656    0.0000 N   0  0  0  0  0  0  0  0  0  0  0  0
    0.3326   15.3791    0.0000 C   0  0  0  0  0  0  0  0  0  0  0  0
    1.8244   15.2223    0.0000 C   0  0  0  0  0  0  0  0  0  0  0  0
   -0.2775   16.7494    0.0000 C   0  0  0  0  0  0  0  0  0  0  0  0
   -2.0490   14.1656    0.0000 C   0  0  0  0  0  0  0  0  0  0  0  0
   -3.0527   15.2803    0.0000 N   0  0  0  0  0  0  0  0  0  0  0  0
   -4.5200   14.9684    0.0000 C   0  0  0  0  0  0  0  0  0  0  0  0
   -4.9835   13.5418    0.0000 N   0  0  0  0  0  0  0  0  0  0  0  0
   -3.9798   12.4271    0.0000 C   0  0  0  0  0  0  0  0  0  0  0  0
   -2.5126   12.7390    0.0000 C   0  0  0  0  0  0  0  0  0  0  0  0
   -0.0000    8.1073    0.0000 C   0  0  0  0  0  0  0  0  0  0  0  0
    1.2135    2.7256    0.0000 N   0  0  0  0  0  0  0  0  0  0  0  0
    0.7500    1.2990    0.0000 C   0  0  0  0  0  0  0  0  0  0  0  0
  1  2  1  0
  2  3  1  0
  3  4  2  0
  4  5  1  0
  5  6  2  0
  6  7  1  0
  7  8  1  0
  8  9  2  0
  9 10  1  0
 10 11  2  0
 10 12  1  0
 12 13  1  0
 13 14  2  0
 14 15  1  0
 15 16  2  0
 16 17  1  0
 17 18  1  0
 18 19  2  0
 18 20  1  0
 20 21  2  0
 21 22  1  0
 22 23  1  0
 23 24  1  0
 23 25  1  0
 22 26  1  0
 26 27  2  0
 27 28  1  0
 28 29  2  0
 29 30  1  0
 30 31  2  0
 17 32  2  0
  9 33  1  0
 33 34  2  0
 34  3  1  0
 34  7  1  0
 32 13  1  0
 31 20  1  0
 31 26  1  0
M  END
>  <Compound_ID>  (95) 
CHEMBL3671369

>  <Molecule Name>  (95) 
nan

>  <Molecular Weight>  (95) 
456.47

>  <AlogP>  (95) 
2.94

>  <Smiles>  (95) 
COc1nccn2cc(C(=O)Nc3cncc(C(=O)c4cn(C(C)C)c5ncncc45)c3)nc12

>  <Standard Type>  (95) 
IC50

>  <Standard Relation>  (95) 
'='

>  <Standard Units>  (95) 
nM

>  <Standard Value>  (95) 
64.6

>  <Assay ChEMBL ID>  (95) 
CHEMBL3887033

>  <Assay Description>  (95) 
Enzyme Assay: Isolated TRK Enzyme assays use the HTRF KinEASE-TK kit (Cisbio Cat# 62TK0PEJ) with recombinant His-tagged cytoplasmic domains of each TRK receptor sourced from Invitrogen (see table below). This activity-assay measures the phosphorylation of tyrosine residues within a substrate from the HTRF kit which has been validated by Cisbio for a variety of tyrosine kinases including the TRK receptors. Assay details: Target:TRKA; Invitrogen Cat# PV3144; Amino acids:aa 441-796; FAC enzyme:4nM; FAC ATP:40uM; Assay Reaction Time:35min.

>  <BAO Format ID>  (95) 
BAO_0000357

>  <BAO Label>  (95) 
single protein format

>  <Assay Organism>  (95) 
None

>  <Target ChEMBL ID>  (95) 
CHEMBL2815

>  <Target Name>  (95) 
Nerve growth factor receptor Trk-A

>  <Target Organism>  (95) 
Homo sapiens

>  <Target Type>  (95) 
SINGLE PROTEIN

>  <Document ChEMBL ID>  (95) 
CHEMBL3639348

>  <Source Description>  (95) 
BindingDB Database

>  <Document Journal>  (95) 
nan

>  <Document Year>  (95) 
2014.0

>  <Active>  (95) 
1.0

>  <bits>  (95) 
<rdkit.DataStructs.cDataStructs.ExplicitBitVect object at 0x00000159F5491700>

>  <Group>  (95) 
G2

$$$$

     RDKit          2D

 37 40  0  0  0  0  0  0  0  0999 V2000
   -8.3172   -3.2650    0.0000 C   0  0  0  0  0  0  0  0  0  0  0  0
   -9.6162   -4.0150    0.0000 C   0  0  0  0  0  0  0  0  0  0  0  0
  -10.9866   -3.4049    0.0000 C   0  0  0  0  0  0  0  0  0  0  0  0
  -11.9903   -4.5196    0.0000 C   0  0  0  0  0  0  0  0  0  0  0  0
  -13.4820   -4.3628    0.0000 C   0  0  0  0  0  0  0  0  0  0  0  0
  -14.9738   -4.2060    0.0000 F   0  0  0  0  0  0  0  0  0  0  0  0
  -13.3252   -2.8710    0.0000 F   0  0  0  0  0  0  0  0  0  0  0  0
  -13.6388   -5.8546    0.0000 F   0  0  0  0  0  0  0  0  0  0  0  0
  -11.2403   -5.8186    0.0000 N   0  0  0  0  0  0  0  0  0  0  0  0
   -9.7730   -5.5068    0.0000 N   0  0  0  0  0  0  0  0  0  0  0  0
   -8.6583   -6.5105    0.0000 C   0  0  0  0  0  0  0  0  0  0  0  0
   -7.2317   -6.0469    0.0000 C   0  0  0  0  0  0  0  0  0  0  0  0
   -6.9199   -4.5797    0.0000 O   0  0  0  0  0  0  0  0  0  0  0  0
   -6.1170   -7.0506    0.0000 N   0  0  0  0  0  0  0  0  0  0  0  0
   -4.6904   -6.5871    0.0000 C   0  0  0  0  0  0  0  0  0  0  0  0
   -3.5757   -7.5908    0.0000 C   0  0  0  0  0  0  0  0  0  0  0  0
   -2.1491   -7.1273    0.0000 N   0  0  0  0  0  0  0  0  0  0  0  0
   -1.8373   -5.6601    0.0000 C   0  0  0  0  0  0  0  0  0  0  0  0
   -2.9520   -4.6564    0.0000 C   0  0  0  0  0  0  0  0  0  0  0  0
   -2.6401   -3.1891    0.0000 C   0  0  0  0  0  0  0  0  0  0  0  0
   -3.7548   -2.1855    0.0000 O   0  0  0  0  0  0  0  0  0  0  0  0
   -1.2135   -2.7256    0.0000 C   0  0  0  0  0  0  0  0  0  0  0  0
   -0.0000   -3.6073    0.0000 C   0  0  0  0  0  0  0  0  0  0  0  0
    1.2135   -2.7256    0.0000 N   0  0  0  0  0  0  0  0  0  0  0  0
    2.6401   -3.1891    0.0000 C   0  0  0  0  0  0  0  0  0  0  0  0
    2.1766   -4.6157    0.0000 C   0  0  0  0  0  0  0  0  0  0  0  0
    3.1036   -1.7626    0.0000 C   0  0  0  0  0  0  0  0  0  0  0  0
    4.5709   -1.4507    0.0000 O   0  0  0  0  0  0  0  0  0  0  0  0
    4.0667   -3.6527    0.0000 C   0  0  0  0  0  0  0  0  0  0  0  0
    5.1814   -2.6490    0.0000 O   0  0  0  0  0  0  0  0  0  0  0  0
    0.7500   -1.2990    0.0000 C   0  0  0  0  0  0  0  0  0  0  0  0
    1.5000    0.0000    0.0000 N   0  0  0  0  0  0  0  0  0  0  0  0
    0.7500    1.2990    0.0000 C   0  0  0  0  0  0  0  0  0  0  0  0
   -0.7500    1.2990    0.0000 N   0  0  0  0  0  0  0  0  0  0  0  0
   -1.5000    0.0000    0.0000 C   0  0  0  0  0  0  0  0  0  0  0  0
   -0.7500   -1.2990    0.0000 C   0  0  0  0  0  0  0  0  0  0  0  0
   -4.3786   -5.1199    0.0000 C   0  0  0  0  0  0  0  0  0  0  0  0
  1  2  1  0
  2  3  2  0
  3  4  1  0
  4  5  1  0
  5  6  1  0
  5  7  1  0
  5  8  1  0
  4  9  2  0
  9 10  1  0
 10 11  1  0
 11 12  1  0
 12 13  2  0
 12 14  1  0
 14 15  1  0
 15 16  2  0
 16 17  1  0
 17 18  2  0
 18 19  1  0
 19 20  1  0
 20 21  2  0
 20 22  1  0
 22 23  2  0
 23 24  1  0
 24 25  1  0
 25 26  1  0
 25 27  1  0
 27 28  1  0
 25 29  1  0
 29 30  1  0
 24 31  1  0
 31 32  2  0
 32 33  1  0
 33 34  2  0
 34 35  1  0
 35 36  2  0
 19 37  2  0
 10  2  1  0
 37 15  1  0
 36 22  1  0
 36 31  1  0
M  END
>  <Compound_ID>  (96) 
CHEMBL3661623

>  <Molecule Name>  (96) 
nan

>  <Molecular Weight>  (96) 
517.47

>  <AlogP>  (96) 
1.92

>  <Smiles>  (96) 
Cc1cc(C(F)(F)F)nn1CC(=O)Nc1cncc(C(=O)c2cn(C(C)(CO)CO)c3ncncc23)c1

>  <Standard Type>  (96) 
IC50

>  <Standard Relation>  (96) 
'='

>  <Standard Units>  (96) 
nM

>  <Standard Value>  (96) 
84.9

>  <Assay ChEMBL ID>  (96) 
CHEMBL3887033

>  <Assay Description>  (96) 
Enzyme Assay: Isolated TRK Enzyme assays use the HTRF KinEASE-TK kit (Cisbio Cat# 62TK0PEJ) with recombinant His-tagged cytoplasmic domains of each TRK receptor sourced from Invitrogen (see table below). This activity-assay measures the phosphorylation of tyrosine residues within a substrate from the HTRF kit which has been validated by Cisbio for a variety of tyrosine kinases including the TRK receptors. Assay details: Target:TRKA; Invitrogen Cat# PV3144; Amino acids:aa 441-796; FAC enzyme:4nM; FAC ATP:40uM; Assay Reaction Time:35min.

>  <BAO Format ID>  (96) 
BAO_0000357

>  <BAO Label>  (96) 
single protein format

>  <Assay Organism>  (96) 
None

>  <Target ChEMBL ID>  (96) 
CHEMBL2815

>  <Target Name>  (96) 
Nerve growth factor receptor Trk-A

>  <Target Organism>  (96) 
Homo sapiens

>  <Target Type>  (96) 
SINGLE PROTEIN

>  <Document ChEMBL ID>  (96) 
CHEMBL3639348

>  <Source Description>  (96) 
BindingDB Database

>  <Document Journal>  (96) 
nan

>  <Document Year>  (96) 
2014.0

>  <Active>  (96) 
1.0

>  <bits>  (96) 
<rdkit.DataStructs.cDataStructs.ExplicitBitVect object at 0x00000159F5491540>

>  <Group>  (96) 
G2

$$$$

     RDKit          2D

 32 36  0  0  0  0  0  0  0  0999 V2000
   -3.7548   -2.1855    0.0000 O   0  0  0  0  0  0  0  0  0  0  0  0
   -2.6401   -3.1891    0.0000 C   0  0  0  0  0  0  0  0  0  0  0  0
   -2.9520   -4.6564    0.0000 N   0  0  0  0  0  0  0  0  0  0  0  0
   -4.3786   -5.1199    0.0000 C   0  0  0  0  0  0  0  0  0  0  0  0
   -4.6904   -6.5871    0.0000 C   0  0  0  0  0  0  0  0  0  0  0  0
   -6.1170   -7.0506    0.0000 N   0  0  0  0  0  0  0  0  0  0  0  0
   -6.5805   -8.4772    0.0000 C   0  0  0  0  0  0  0  0  0  0  0  0
   -8.0805   -8.4772    0.0000 C   0  0  0  0  0  0  0  0  0  0  0  0
   -8.5441   -7.0506    0.0000 N   0  0  0  0  0  0  0  0  0  0  0  0
   -7.3305   -6.1690    0.0000 C   0  0  0  0  0  0  0  0  0  0  0  0
   -1.2135   -2.7256    0.0000 C   0  0  0  0  0  0  0  0  0  0  0  0
   -0.0000   -3.6073    0.0000 C   0  0  0  0  0  0  0  0  0  0  0  0
    1.2135   -2.7256    0.0000 N   0  0  0  0  0  0  0  0  0  0  0  0
    0.7500   -1.2990    0.0000 N   0  0  0  0  0  0  0  0  0  0  0  0
    1.5000    0.0000    0.0000 C   0  0  0  0  0  0  0  0  0  0  0  0
    0.7500    1.2990    0.0000 C   0  0  0  0  0  0  0  0  0  0  0  0
   -0.7500    1.2990    0.0000 C   0  0  0  0  0  0  0  0  0  0  0  0
   -1.5000    2.5981    0.0000 N   0  0  0  0  0  0  0  0  0  0  0  0
   -2.9918    2.7549    0.0000 C   0  0  0  0  0  0  0  0  0  0  0  0
   -3.3037    4.2221    0.0000 C   0  0  0  0  0  0  0  0  0  0  0  0
   -2.0046    4.9721    0.0000 C   0  0  0  0  0  0  0  0  0  0  0  0
   -0.8899    3.9684    0.0000 C   0  0  0  0  0  0  0  0  0  0  0  0
    0.5773    4.2803    0.0000 C   0  0  0  0  0  0  0  0  0  0  0  0
    1.5810    3.1655    0.0000 C   0  0  0  0  0  0  0  0  0  0  0  0
    3.0482    3.4774    0.0000 C   0  0  0  0  0  0  0  0  0  0  0  0
    4.0519    2.3627    0.0000 F   0  0  0  0  0  0  0  0  0  0  0  0
    3.5118    4.9040    0.0000 C   0  0  0  0  0  0  0  0  0  0  0  0
    2.5081    6.0187    0.0000 C   0  0  0  0  0  0  0  0  0  0  0  0
    1.0409    5.7068    0.0000 C   0  0  0  0  0  0  0  0  0  0  0  0
    0.0372    6.8216    0.0000 F   0  0  0  0  0  0  0  0  0  0  0  0
   -1.5000    0.0000    0.0000 N   0  0  0  0  0  0  0  0  0  0  0  0
   -0.7500   -1.2990    0.0000 C   0  0  0  0  0  0  0  0  0  0  0  0
  1  2  2  0
  2  3  1  0
  3  4  1  0
  4  5  1  0
  5  6  1  0
  6  7  1  0
  7  8  2  0
  8  9  1  0
  9 10  2  0
  2 11  1  0
 11 12  1  0
 12 13  2  0
 13 14  1  0
 14 15  1  0
 15 16  2  0
 16 17  1  0
 17 18  1  0
 18 19  1  0
 19 20  1  0
 20 21  1  0
 21 22  1  0
 22 23  1  6
 23 24  2  0
 24 25  1  0
 25 26  1  0
 25 27  2  0
 27 28  1  0
 28 29  2  0
 29 30  1  0
 17 31  2  0
 31 32  1  0
 10  6  1  0
 32 11  2  0
 32 14  1  0
 22 18  1  0
 29 23  1  0
M  END
>  <Compound_ID>  (97) 
CHEMBL3671156

>  <Molecule Name>  (97) 
nan

>  <Molecular Weight>  (97) 
437.45

>  <AlogP>  (97) 
2.98

>  <Smiles>  (97) 
O=C(NCCn1ccnc1)c1cnn2ccc(N3CCC[C@@H]3c3cc(F)ccc3F)nc12

>  <Standard Type>  (97) 
IC50

>  <Standard Relation>  (97) 
'='

>  <Standard Units>  (97) 
nM

>  <Standard Value>  (97) 
2.8

>  <Assay ChEMBL ID>  (97) 
CHEMBL3887070

>  <Assay Description>  (97) 
ELISA Assay: An enzyme-linked immunosorbant assay (ELISA) was used to assess TrkA kinase activity in the presence of inhibitors. Immulon 4HBX 384-well microtiter plates (Thermo part #8755) were coated with a 0.025 mg/mL solution of poly (Glu, Ala, Tyr; 6:3:1; Sigma P3899). Various concentrations of test compound, 2.5 nM TrkA (Invitrogen Corp., histidine-tagged recombinant human TrkA, cytoplasmic domain), and 500 uM ATP were incubated for 25 minutes at ambient temperature in the coated plates while shaking The assay buffer consisted of 25 mM MOPS pH 7.5, 0.005% (v/v) Triton X-100 and 5 mM MgCl2. The reaction mixture was removed from the plate by washing with PBS containing 0.1% (v/v) Tween 20. The phosphorylated reaction product was detected using 0.2 ug/mL of a phosphotyrosine specific monoclonal antibody (clone PY20) conjugated to horseradish peroxidase in conjunction with the TMB Peroxidase Substrate System (KPL).

>  <BAO Format ID>  (97) 
BAO_0000357

>  <BAO Label>  (97) 
single protein format

>  <Assay Organism>  (97) 
None

>  <Target ChEMBL ID>  (97) 
CHEMBL2815

>  <Target Name>  (97) 
Nerve growth factor receptor Trk-A

>  <Target Organism>  (97) 
Homo sapiens

>  <Target Type>  (97) 
SINGLE PROTEIN

>  <Document ChEMBL ID>  (97) 
CHEMBL3638907

>  <Source Description>  (97) 
BindingDB Database

>  <Document Journal>  (97) 
nan

>  <Document Year>  (97) 
2014.0

>  <Active>  (97) 
1.0

>  <bits>  (97) 
<rdkit.DataStructs.cDataStructs.ExplicitBitVect object at 0x00000159F5492E30>

>  <Group>  (97) 
G2

$$$$

     RDKit          2D

 35 39  0  0  0  0  0  0  0  0999 V2000
    4.0482   -9.2113    0.0000 C   0  0  0  0  0  0  0  0  0  0  0  0
    2.9335   -8.2076    0.0000 O   0  0  0  0  0  0  0  0  0  0  0  0
    1.5069   -8.6712    0.0000 C   0  0  0  0  0  0  0  0  0  0  0  0
    0.3922   -7.6675    0.0000 C   0  0  0  0  0  0  0  0  0  0  0  0
   -1.0344   -8.1310    0.0000 C   0  0  0  0  0  0  0  0  0  0  0  0
   -1.3463   -9.5982    0.0000 C   0  0  0  0  0  0  0  0  0  0  0  0
   -2.7729  -10.0617    0.0000 C   0  0  0  0  0  0  0  0  0  0  0  0
   -3.0847  -11.5290    0.0000 C   0  0  0  0  0  0  0  0  0  0  0  0
   -3.8876   -9.0580    0.0000 O   0  0  0  0  0  0  0  0  0  0  0  0
   -3.5757   -7.5908    0.0000 C   0  0  0  0  0  0  0  0  0  0  0  0
   -2.1491   -7.1273    0.0000 C   0  0  0  0  0  0  0  0  0  0  0  0
   -1.8373   -5.6601    0.0000 C   0  0  0  0  0  0  0  0  0  0  0  0
   -2.9520   -4.6564    0.0000 C   0  0  0  0  0  0  0  0  0  0  0  0
   -2.6401   -3.1891    0.0000 C   0  0  0  0  0  0  0  0  0  0  0  0
   -1.2135   -2.7256    0.0000 N   0  0  0  0  0  0  0  0  0  0  0  0
   -0.0000   -3.6073    0.0000 C   0  0  0  0  0  0  0  0  0  0  0  0
    1.2135   -2.7256    0.0000 N   0  0  0  0  0  0  0  0  0  0  0  0
    0.7500   -1.2990    0.0000 C   0  0  0  0  0  0  0  0  0  0  0  0
    1.5000    0.0000    0.0000 C   0  0  0  0  0  0  0  0  0  0  0  0
    0.7500    1.2990    0.0000 C   0  0  0  0  0  0  0  0  0  0  0  0
    1.5000    2.5981    0.0000 C   0  0  0  0  0  0  0  0  0  0  0  0
    0.8899    3.9684    0.0000 C   0  0  0  0  0  0  0  0  0  0  0  0
    2.0046    4.9721    0.0000 N   0  0  0  0  0  0  0  0  0  0  0  0
    3.3037    4.2221    0.0000 N   0  0  0  0  0  0  0  0  0  0  0  0
    4.6740    4.8322    0.0000 C   0  0  0  0  0  0  0  0  0  0  0  0
    2.9918    2.7549    0.0000 C   0  0  0  0  0  0  0  0  0  0  0  0
   -0.7500    1.2990    0.0000 C   0  0  0  0  0  0  0  0  0  0  0  0
   -1.5000    0.0000    0.0000 N   0  0  0  0  0  0  0  0  0  0  0  0
   -0.7500   -1.2990    0.0000 C   0  0  0  0  0  0  0  0  0  0  0  0
   -4.3786   -5.1199    0.0000 C   0  0  0  0  0  0  0  0  0  0  0  0
   -4.6904   -6.5871    0.0000 C   0  0  0  0  0  0  0  0  0  0  0  0
   -6.1170   -7.0506    0.0000 O   0  0  0  0  0  0  0  0  0  0  0  0
   -7.2317   -6.0469    0.0000 C   0  0  0  0  0  0  0  0  0  0  0  0
   -0.2316  -10.6019    0.0000 C   0  0  0  0  0  0  0  0  0  0  0  0
    1.1950  -10.1384    0.0000 N   0  0  0  0  0  0  0  0  0  0  0  0
  1  2  1  0
  2  3  1  0
  3  4  2  0
  4  5  1  0
  5  6  2  0
  6  7  1  0
  7  8  1  0
  7  9  1  0
  9 10  1  0
 10 11  2  0
 11 12  1  0
 12 13  2  0
 13 14  1  0
 14 15  1  0
 15 16  1  0
 16 17  2  0
 17 18  1  0
 18 19  2  0
 19 20  1  0
 20 21  1  0
 21 22  1  0
 22 23  2  0
 23 24  1  0
 24 25  1  0
 24 26  1  0
 20 27  2  0
 27 28  1  0
 28 29  2  0
 13 30  1  0
 30 31  2  0
 31 32  1  0
 32 33  1  0
  6 34  1  0
 34 35  2  0
 35  3  1  0
 31 10  1  0
 29 15  1  0
 29 18  1  0
 26 21  2  0
M  END
>  <Compound_ID>  (98) 
CHEMBL3678303

>  <Molecule Name>  (98) 
nan

>  <Molecular Weight>  (98) 
470.53

>  <AlogP>  (98) 
4.43

>  <Smiles>  (98) 
COc1ccc(C(C)Oc2ccc(Cn3cnc4cc(-c5cnn(C)c5)cnc43)cc2OC)cn1

>  <Standard Type>  (98) 
IC50

>  <Standard Relation>  (98) 
'='

>  <Standard Units>  (98) 
nM

>  <Standard Value>  (98) 
35.0

>  <Assay ChEMBL ID>  (98) 
CHEMBL3887112

>  <Assay Description>  (98) 
Inhibition Assay: Reagents and consumables were purchased from Sigma Aldrich, Carna Biosciences, or Caliper Life Sciences. All assay reaction conditions for IC50 determinations were within the linear range with respect to time and enzyme concentration. In a 384 well polypropylene plate, TrkA (0.4 nM, Carna 08-186) was pre-incubated in a 100 mM Hepes-NaOH pH 7.5 buffer containing 0.01% Triton X-100, 10 mM MgCl2, 0.1% BSA, 1 mM DTT, 10 uM sodium orthovanadate and 10 uM beta-glycerophosphate and compound with a concentration of 2.5% DMSO for 15 minutes at room temperature. The reaction was initiated with an equal volume of peptide substrate (Caliper Life Sciences catalog no. 760430) and ATP in the aforementioned buffer. The final concentrations in the reaction were 200 pM TrkA, 1.5 uM peptide substrate and 55 uM ATP (ATP Km). The reaction was incubated at room temperature for 180 minutes and terminated with a buffer containing excess EDTA (100 mM Hepes-NaOH pH 7.5, 0.02% Brij.

>  <BAO Format ID>  (98) 
BAO_0000357

>  <BAO Label>  (98) 
single protein format

>  <Assay Organism>  (98) 
None

>  <Target ChEMBL ID>  (98) 
CHEMBL2815

>  <Target Name>  (98) 
Nerve growth factor receptor Trk-A

>  <Target Organism>  (98) 
Homo sapiens

>  <Target Type>  (98) 
SINGLE PROTEIN

>  <Document ChEMBL ID>  (98) 
CHEMBL3638818

>  <Source Description>  (98) 
BindingDB Database

>  <Document Journal>  (98) 
nan

>  <Document Year>  (98) 
2015.0

>  <Active>  (98) 
1.0

>  <bits>  (98) 
<rdkit.DataStructs.cDataStructs.ExplicitBitVect object at 0x00000159F54914D0>

>  <Group>  (98) 
G2

$$$$

     RDKit          2D

 33 36  0  0  0  0  0  0  0  0999 V2000
    5.2500   -1.2990    0.0000 C   0  0  0  0  0  0  0  0  0  0  0  0
    3.7500   -1.2990    0.0000 C   0  0  0  0  0  0  0  0  0  0  0  0
    3.0000    0.0000    0.0000 C   0  0  0  0  0  0  0  0  0  0  0  0
    3.7500    1.2990    0.0000 O   0  0  0  0  0  0  0  0  0  0  0  0
    1.5000    0.0000    0.0000 N   0  0  0  0  0  0  0  0  0  0  0  0
    0.7500   -1.2990    0.0000 C   0  0  0  0  0  0  0  0  0  0  0  0
   -0.7500   -1.2990    0.0000 C   0  0  0  0  0  0  0  0  0  0  0  0
   -1.5000    0.0000    0.0000 N   0  0  0  0  0  0  0  0  0  0  0  0
   -3.0000    0.0000    0.0000 C   0  0  0  0  0  0  0  0  0  0  0  0
   -3.7500   -1.2990    0.0000 O   0  0  0  0  0  0  0  0  0  0  0  0
   -3.7500    1.2990    0.0000 C   0  0  0  0  0  0  0  0  0  0  0  0
   -3.0000    2.5981    0.0000 C   0  0  0  0  0  0  0  0  0  0  0  0
   -3.7500    3.8971    0.0000 C   0  0  0  0  0  0  0  0  0  0  0  0
   -3.0000    5.1962    0.0000 S   0  0  0  0  0  0  0  0  0  0  0  0
   -1.5000    5.1962    0.0000 C   0  0  0  0  0  0  0  0  0  0  0  0
   -0.6183    6.4097    0.0000 C   0  0  0  0  0  0  0  0  0  0  0  0
    0.8083    5.9462    0.0000 N   0  0  0  0  0  0  0  0  0  0  0  0
    0.8083    4.4462    0.0000 C   0  0  0  0  0  0  0  0  0  0  0  0
    2.0218    3.5645    0.0000 N   0  0  0  0  0  0  0  0  0  0  0  0
    3.3921    4.1746    0.0000 C   0  0  0  0  0  0  0  0  0  0  0  0
    4.6056    3.2929    0.0000 C   0  0  0  0  0  0  0  0  0  0  0  0
    5.9760    3.9030    0.0000 C   0  0  0  0  0  0  0  0  0  0  0  0
    6.1327    5.3948    0.0000 C   0  0  0  0  0  0  0  0  0  0  0  0
    4.9192    6.2765    0.0000 C   0  0  0  0  0  0  0  0  0  0  0  0
    5.0760    7.7683    0.0000 Br  0  0  0  0  0  0  0  0  0  0  0  0
    3.5489    5.6664    0.0000 N   0  0  0  0  0  0  0  0  0  0  0  0
   -0.6183    3.9826    0.0000 S   0  0  0  0  0  0  0  0  0  0  0  0
   -5.2500    3.8971    0.0000 C   0  0  0  0  0  0  0  0  0  0  0  0
   -6.0000    2.5981    0.0000 C   0  0  0  0  0  0  0  0  0  0  0  0
   -5.2500    1.2990    0.0000 C   0  0  0  0  0  0  0  0  0  0  0  0
   -6.0000    0.0000    0.0000 C   0  0  0  0  0  0  0  0  0  0  0  0
   -0.7500    1.2990    0.0000 C   0  0  0  0  0  0  0  0  0  0  0  0
    0.7500    1.2990    0.0000 C   0  0  0  0  0  0  0  0  0  0  0  0
  1  2  1  0
  2  3  1  0
  3  4  2  0
  3  5  1  0
  5  6  1  0
  6  7  1  0
  7  8  1  0
  8  9  1  0
  9 10  2  0
  9 11  1  0
 11 12  2  0
 12 13  1  0
 13 14  1  0
 14 15  1  0
 15 16  2  0
 16 17  1  0
 17 18  2  0
 18 19  1  0
 19 20  1  0
 20 21  2  0
 21 22  1  0
 22 23  2  0
 23 24  1  0
 24 25  1  0
 24 26  2  0
 18 27  1  0
 13 28  2  0
 28 29  1  0
 29 30  2  0
 30 31  1  0
  8 32  1  0
 32 33  1  0
 33  5  1  0
 30 11  1  0
 27 15  1  0
 26 20  1  0
M  END
>  <Compound_ID>  (99) 
CHEMBL254690

>  <Molecule Name>  (99) 
nan

>  <Molecular Weight>  (99) 
546.52

>  <AlogP>  (99) 
5.2

>  <Smiles>  (99) 
CCC(=O)N1CCN(C(=O)c2cc(Sc3cnc(Nc4cccc(Br)n4)s3)ccc2C)CC1

>  <Standard Type>  (99) 
IC50

>  <Standard Relation>  (99) 
'='

>  <Standard Units>  (99) 
nM

>  <Standard Value>  (99) 
21.0

>  <Assay ChEMBL ID>  (99) 
CHEMBL928869

>  <Assay Description>  (99) 
Inhibition of TrkA

>  <BAO Format ID>  (99) 
BAO_0000357

>  <BAO Label>  (99) 
single protein format

>  <Assay Organism>  (99) 
None

>  <Target ChEMBL ID>  (99) 
CHEMBL2815

>  <Target Name>  (99) 
Nerve growth factor receptor Trk-A

>  <Target Organism>  (99) 
Homo sapiens

>  <Target Type>  (99) 
SINGLE PROTEIN

>  <Document ChEMBL ID>  (99) 
CHEMBL1140800

>  <Source Description>  (99) 
Scientific Literature

>  <Document Journal>  (99) 
Bioorg Med Chem Lett

>  <Document Year>  (99) 
2008.0

>  <Active>  (99) 
1.0

>  <bits>  (99) 
<rdkit.DataStructs.cDataStructs.ExplicitBitVect object at 0x00000159F5491460>

>  <Group>  (99) 
G2

$$$$

     RDKit          2D

 34 37  0  0  0  0  0  0  0  0999 V2000
    3.0000    0.0000    0.0000 C   0  0  0  0  0  0  0  0  0  0  0  0
    1.5000    0.0000    0.0000 C   0  0  0  0  0  0  0  0  0  0  0  0
    0.7500   -1.2990    0.0000 C   0  0  0  0  0  0  0  0  0  0  0  0
   -0.7500   -1.2990    0.0000 C   0  0  0  0  0  0  0  0  0  0  0  0
   -1.5000    0.0000    0.0000 C   0  0  0  0  0  0  0  0  0  0  0  0
   -3.0000    0.0000    0.0000 S   0  0  0  0  0  0  0  0  0  0  0  0
   -3.7500    1.2990    0.0000 C   0  0  0  0  0  0  0  0  0  0  0  0
   -5.2418    1.4558    0.0000 C   0  0  0  0  0  0  0  0  0  0  0  0
   -5.5537    2.9231    0.0000 N   0  0  0  0  0  0  0  0  0  0  0  0
   -4.2546    3.6731    0.0000 C   0  0  0  0  0  0  0  0  0  0  0  0
   -4.0978    5.1648    0.0000 N   0  0  0  0  0  0  0  0  0  0  0  0
   -5.3113    6.0465    0.0000 C   0  0  0  0  0  0  0  0  0  0  0  0
   -5.1546    7.5383    0.0000 C   0  0  0  0  0  0  0  0  0  0  0  0
   -6.3681    8.4200    0.0000 C   0  0  0  0  0  0  0  0  0  0  0  0
   -7.7384    7.8099    0.0000 C   0  0  0  0  0  0  0  0  0  0  0  0
   -7.8952    6.3181    0.0000 C   0  0  0  0  0  0  0  0  0  0  0  0
   -9.2655    5.7080    0.0000 Br  0  0  0  0  0  0  0  0  0  0  0  0
   -6.6817    5.4364    0.0000 N   0  0  0  0  0  0  0  0  0  0  0  0
   -3.1399    2.6694    0.0000 S   0  0  0  0  0  0  0  0  0  0  0  0
   -0.7500    1.2990    0.0000 C   0  0  0  0  0  0  0  0  0  0  0  0
    0.7500    1.2990    0.0000 C   0  0  0  0  0  0  0  0  0  0  0  0
    1.5000    2.5981    0.0000 C   0  0  0  0  0  0  0  0  0  0  0  0
    3.0000    2.5981    0.0000 O   0  0  0  0  0  0  0  0  0  0  0  0
    0.7500    3.8971    0.0000 N   0  0  0  0  0  0  0  0  0  0  0  0
    1.5000    5.1962    0.0000 C   0  0  0  0  0  0  0  0  0  0  0  0
    0.7500    6.4952    0.0000 C   0  0  0  0  0  0  0  0  0  0  0  0
   -0.7500    6.4952    0.0000 N   0  0  0  0  0  0  0  0  0  0  0  0
   -1.5000    7.7942    0.0000 C   0  0  0  0  0  0  0  0  0  0  0  0
   -3.0000    7.7942    0.0000 O   0  0  0  0  0  0  0  0  0  0  0  0
   -0.7500    9.0933    0.0000 C   0  0  0  0  0  0  0  0  0  0  0  0
   -1.5000   10.3923    0.0000 C   0  0  0  0  0  0  0  0  0  0  0  0
    0.7500    9.0933    0.0000 N   0  0  0  0  0  0  0  0  0  0  0  0
   -1.5000    5.1962    0.0000 C   0  0  0  0  0  0  0  0  0  0  0  0
   -0.7500    3.8971    0.0000 C   0  0  0  0  0  0  0  0  0  0  0  0
  1  2  1  0
  2  3  2  0
  3  4  1  0
  4  5  2  0
  5  6  1  0
  6  7  1  0
  7  8  2  0
  8  9  1  0
  9 10  2  0
 10 11  1  0
 11 12  1  0
 12 13  2  0
 13 14  1  0
 14 15  2  0
 15 16  1  0
 16 17  1  0
 16 18  2  0
 10 19  1  0
  5 20  1  0
 20 21  2  0
 21 22  1  0
 22 23  2  0
 22 24  1  0
 24 25  1  0
 25 26  1  0
 26 27  1  0
 27 28  1  0
 28 29  2  0
 28 30  1  0
 30 31  1  6
 30 32  1  0
 27 33  1  0
 33 34  1  0
 21  2  1  0
 34 24  1  0
 19  7  1  0
 18 12  1  0
M  END
>  <Compound_ID>  (100) 
CHEMBL251795

>  <Molecule Name>  (100) 
nan

>  <Molecular Weight>  (100) 
561.53

>  <AlogP>  (100) 
4.14

>  <Smiles>  (100) 
Cc1ccc(Sc2cnc(Nc3cccc(Br)n3)s2)cc1C(=O)N1CCN(C(=O)[C@H](C)N)CC1

>  <Standard Type>  (100) 
IC50

>  <Standard Relation>  (100) 
'='

>  <Standard Units>  (100) 
nM

>  <Standard Value>  (100) 
1.0

>  <Assay ChEMBL ID>  (100) 
CHEMBL928869

>  <Assay Description>  (100) 
Inhibition of TrkA

>  <BAO Format ID>  (100) 
BAO_0000357

>  <BAO Label>  (100) 
single protein format

>  <Assay Organism>  (100) 
None

>  <Target ChEMBL ID>  (100) 
CHEMBL2815

>  <Target Name>  (100) 
Nerve growth factor receptor Trk-A

>  <Target Organism>  (100) 
Homo sapiens

>  <Target Type>  (100) 
SINGLE PROTEIN

>  <Document ChEMBL ID>  (100) 
CHEMBL1140800

>  <Source Description>  (100) 
Scientific Literature

>  <Document Journal>  (100) 
Bioorg Med Chem Lett

>  <Document Year>  (100) 
2008.0

>  <Active>  (100) 
1.0

>  <bits>  (100) 
<rdkit.DataStructs.cDataStructs.ExplicitBitVect object at 0x00000159F54913F0>

>  <Group>  (100) 
G2

$$$$

     RDKit          2D

 31 35  0  0  0  0  0  0  0  0999 V2000
   -2.6401   -3.1891    0.0000 C   0  0  0  0  0  0  0  0  0  0  0  0
   -1.2135   -2.7256    0.0000 N   0  0  0  0  0  0  0  0  0  0  0  0
   -0.0000   -3.6073    0.0000 C   0  0  0  0  0  0  0  0  0  0  0  0
    1.2135   -2.7256    0.0000 C   0  0  0  0  0  0  0  0  0  0  0  0
    2.6401   -3.1891    0.0000 C   0  0  0  0  0  0  0  0  0  0  0  0
    3.7548   -2.1855    0.0000 O   0  0  0  0  0  0  0  0  0  0  0  0
    2.9520   -4.6564    0.0000 C   0  0  0  0  0  0  0  0  0  0  0  0
    1.8373   -5.6601    0.0000 C   0  0  0  0  0  0  0  0  0  0  0  0
    2.1491   -7.1273    0.0000 N   0  0  0  0  0  0  0  0  0  0  0  0
    3.5757   -7.5908    0.0000 C   0  0  0  0  0  0  0  0  0  0  0  0
    4.6904   -6.5871    0.0000 C   0  0  0  0  0  0  0  0  0  0  0  0
    6.1170   -7.0506    0.0000 N   0  0  0  0  0  0  0  0  0  0  0  0
    7.2317   -6.0469    0.0000 N   0  0  0  0  0  0  0  0  0  0  0  0
    6.4289   -8.5179    0.0000 C   0  0  0  0  0  0  0  0  0  0  0  0
    5.3142   -9.5216    0.0000 O   0  0  0  0  0  0  0  0  0  0  0  0
    7.8555   -8.9814    0.0000 C   0  0  0  0  0  0  0  0  0  0  0  0
    8.1673  -10.4486    0.0000 C   0  0  0  0  0  0  0  0  0  0  0  0
    7.1636  -11.5633    0.0000 N   0  0  0  0  0  0  0  0  0  0  0  0
    7.9136  -12.8624    0.0000 N   0  0  0  0  0  0  0  0  0  0  0  0
    9.3809  -12.5505    0.0000 C   0  0  0  0  0  0  0  0  0  0  0  0
    9.5377  -11.0587    0.0000 C   0  0  0  0  0  0  0  0  0  0  0  0
   11.0049  -10.7468    0.0000 C   0  0  0  0  0  0  0  0  0  0  0  0
   11.7549  -12.0459    0.0000 C   0  0  0  0  0  0  0  0  0  0  0  0
   10.7512  -13.1606    0.0000 C   0  0  0  0  0  0  0  0  0  0  0  0
    4.3786   -5.1199    0.0000 C   0  0  0  0  0  0  0  0  0  0  0  0
    0.7500   -1.2990    0.0000 C   0  0  0  0  0  0  0  0  0  0  0  0
    1.5000    0.0000    0.0000 C   0  0  0  0  0  0  0  0  0  0  0  0
    0.7500    1.2990    0.0000 N   0  0  0  0  0  0  0  0  0  0  0  0
   -0.7500    1.2990    0.0000 C   0  0  0  0  0  0  0  0  0  0  0  0
   -1.5000    0.0000    0.0000 N   0  0  0  0  0  0  0  0  0  0  0  0
   -0.7500   -1.2990    0.0000 C   0  0  0  0  0  0  0  0  0  0  0  0
  1  2  1  0
  2  3  1  0
  3  4  2  0
  4  5  1  0
  5  6  2  0
  5  7  1  0
  7  8  2  0
  8  9  1  0
  9 10  2  0
 10 11  1  0
 11 12  1  0
 12 13  1  0
 12 14  1  0
 14 15  2  0
 14 16  1  0
 16 17  1  0
 17 18  2  0
 18 19  1  0
 19 20  1  0
 20 21  2  0
 21 22  1  0
 22 23  1  0
 23 24  1  0
 11 25  2  0
  4 26  1  0
 26 27  2  0
 27 28  1  0
 28 29  2  0
 29 30  1  0
 30 31  2  0
 31  2  1  0
 25  7  1  0
 31 26  1  0
 21 17  1  0
 24 20  1  0
M  END
>  <Compound_ID>  (101) 
CHEMBL3671466

>  <Molecule Name>  (101) 
nan

>  <Molecular Weight>  (101) 
416.45

>  <AlogP>  (101) 
1.26

>  <Smiles>  (101) 
Cn1cc(C(=O)c2cncc(N(N)C(=O)Cc3n[nH]c4c3CCC4)c2)c2cncnc21

>  <Standard Type>  (101) 
IC50

>  <Standard Relation>  (101) 
'='

>  <Standard Units>  (101) 
nM

>  <Standard Value>  (101) 
15.1

>  <Assay ChEMBL ID>  (101) 
CHEMBL3887033

>  <Assay Description>  (101) 
Enzyme Assay: Isolated TRK Enzyme assays use the HTRF KinEASE-TK kit (Cisbio Cat# 62TK0PEJ) with recombinant His-tagged cytoplasmic domains of each TRK receptor sourced from Invitrogen (see table below). This activity-assay measures the phosphorylation of tyrosine residues within a substrate from the HTRF kit which has been validated by Cisbio for a variety of tyrosine kinases including the TRK receptors. Assay details: Target:TRKA; Invitrogen Cat# PV3144; Amino acids:aa 441-796; FAC enzyme:4nM; FAC ATP:40uM; Assay Reaction Time:35min.

>  <BAO Format ID>  (101) 
BAO_0000357

>  <BAO Label>  (101) 
single protein format

>  <Assay Organism>  (101) 
None

>  <Target ChEMBL ID>  (101) 
CHEMBL2815

>  <Target Name>  (101) 
Nerve growth factor receptor Trk-A

>  <Target Organism>  (101) 
Homo sapiens

>  <Target Type>  (101) 
SINGLE PROTEIN

>  <Document ChEMBL ID>  (101) 
CHEMBL3639348

>  <Source Description>  (101) 
BindingDB Database

>  <Document Journal>  (101) 
nan

>  <Document Year>  (101) 
2014.0

>  <Active>  (101) 
1.0

>  <bits>  (101) 
<rdkit.DataStructs.cDataStructs.ExplicitBitVect object at 0x00000159F5491310>

>  <Group>  (101) 
G2

$$$$

     RDKit          2D

 36 39  0  0  0  0  0  0  0  0999 V2000
    1.8122  -16.0100    0.0000 C   0  0  0  0  0  0  0  0  0  0  0  0
    0.3204  -15.8532    0.0000 C   0  0  0  0  0  0  0  0  0  0  0  0
   -0.5613  -17.0667    0.0000 C   0  0  0  0  0  0  0  0  0  0  0  0
   -0.2897  -14.4829    0.0000 N   0  0  0  0  0  0  0  0  0  0  0  0
   -1.7570  -14.1710    0.0000 N   0  0  0  0  0  0  0  0  0  0  0  0
   -1.9137  -12.6792    0.0000 C   0  0  0  0  0  0  0  0  0  0  0  0
   -0.5434  -12.0691    0.0000 C   0  0  0  0  0  0  0  0  0  0  0  0
   -0.2316  -10.6019    0.0000 C   0  0  0  0  0  0  0  0  0  0  0  0
   -1.3463   -9.5982    0.0000 C   0  0  0  0  0  0  0  0  0  0  0  0
   -2.7729  -10.0617    0.0000 O   0  0  0  0  0  0  0  0  0  0  0  0
   -1.0344   -8.1310    0.0000 N   0  0  0  0  0  0  0  0  0  0  0  0
   -2.1491   -7.1273    0.0000 C   0  0  0  0  0  0  0  0  0  0  0  0
   -1.8373   -5.6601    0.0000 C   0  0  0  0  0  0  0  0  0  0  0  0
   -2.9520   -4.6564    0.0000 C   0  0  0  0  0  0  0  0  0  0  0  0
   -2.6401   -3.1891    0.0000 C   0  0  0  0  0  0  0  0  0  0  0  0
   -3.7548   -2.1855    0.0000 O   0  0  0  0  0  0  0  0  0  0  0  0
   -1.2135   -2.7256    0.0000 C   0  0  0  0  0  0  0  0  0  0  0  0
   -0.0000   -3.6073    0.0000 C   0  0  0  0  0  0  0  0  0  0  0  0
    1.2135   -2.7256    0.0000 N   0  0  0  0  0  0  0  0  0  0  0  0
    2.6401   -3.1891    0.0000 C   0  0  0  0  0  0  0  0  0  0  0  0
    2.9520   -4.6564    0.0000 C   0  0  0  0  0  0  0  0  0  0  0  0
    3.7548   -2.1855    0.0000 C   0  0  0  0  0  0  0  0  0  0  0  0
    0.7500   -1.2990    0.0000 C   0  0  0  0  0  0  0  0  0  0  0  0
    1.5000    0.0000    0.0000 C   0  0  0  0  0  0  0  0  0  0  0  0
    0.7500    1.2990    0.0000 C   0  0  0  0  0  0  0  0  0  0  0  0
   -0.7500    1.2990    0.0000 N   0  0  0  0  0  0  0  0  0  0  0  0
   -1.5000    0.0000    0.0000 C   0  0  0  0  0  0  0  0  0  0  0  0
   -0.7500   -1.2990    0.0000 C   0  0  0  0  0  0  0  0  0  0  0  0
   -4.3786   -5.1199    0.0000 C   0  0  0  0  0  0  0  0  0  0  0  0
   -4.6904   -6.5871    0.0000 C   0  0  0  0  0  0  0  0  0  0  0  0
   -3.5757   -7.5908    0.0000 N   0  0  0  0  0  0  0  0  0  0  0  0
    0.4603  -13.1838    0.0000 C   0  0  0  0  0  0  0  0  0  0  0  0
    1.9521  -13.0270    0.0000 C   0  0  0  0  0  0  0  0  0  0  0  0
    3.4438  -12.8703    0.0000 F   0  0  0  0  0  0  0  0  0  0  0  0
    2.1088  -14.5188    0.0000 F   0  0  0  0  0  0  0  0  0  0  0  0
    1.7953  -11.5353    0.0000 F   0  0  0  0  0  0  0  0  0  0  0  0
  1  2  1  0
  2  3  1  0
  2  4  1  0
  4  5  1  0
  5  6  2  0
  6  7  1  0
  7  8  1  0
  8  9  1  0
  9 10  2  0
  9 11  1  0
 11 12  1  0
 12 13  2  0
 13 14  1  0
 14 15  1  0
 15 16  2  0
 15 17  1  0
 17 18  2  0
 18 19  1  0
 19 20  1  0
 20 21  1  0
 20 22  1  0
 19 23  1  0
 23 24  2  0
 24 25  1  0
 25 26  2  0
 26 27  1  0
 27 28  2  0
 14 29  2  0
 29 30  1  0
 30 31  2  0
  7 32  2  0
 32 33  1  0
 33 34  1  0
 33 35  1  0
 33 36  1  0
 32  4  1  0
 31 12  1  0
 28 17  1  0
 28 23  1  0
M  END
>  <Compound_ID>  (102) 
CHEMBL3914428

>  <Molecule Name>  (102) 
nan

>  <Molecular Weight>  (102) 
498.51

>  <AlogP>  (102) 
5.22

>  <Smiles>  (102) 
CC(C)n1ncc(CC(=O)Nc2cc(C(=O)c3cn(C(C)C)c4ccncc34)ccn2)c1C(F)(F)F

>  <Standard Type>  (102) 
IC50

>  <Standard Relation>  (102) 
'='

>  <Standard Units>  (102) 
nM

>  <Standard Value>  (102) 
22.0

>  <Assay ChEMBL ID>  (102) 
CHEMBL3887111

>  <Assay Description>  (102) 
HTRF Assay: Isolated TRK Enzyme assays use the HTRF KinEASE-TK kit (Cisbio Cat#62TK0PEJ) with recombinant His-tagged cytoplasmic domains of each TRK receptor sourced from Invitrogen (see table below). This activity-assay measures the phosphorylation of tyrosine residues within a substrate from the HTRF kit which has been validated by Cisbio for a variety of tyrosine kinases including the TRK receptors.Assay Details: Invitrogen Amino FAC FAC Assay ReactionTarget Cat# acids enzyme ATP TimeTRKA PV3144 aa 441-4 nM 40 uM 35 min (NTRK1) 796 TRKB PV3616 aa 526-1 nM 1.4 uM 40 min (NTRK2) 838 TRKC PV3617 aa 510- 10 nM 15 uM 30 min (NTRK3) 8250.5 mM stock solutions of test compounds are prepared and serially diluted in 100% DMSO. A standard curve using the compound of Example 135 disclosed in WO2005/116035 of 150 uM is also prepared on each test plate. High percentage effect (HPE) is defined by 150 uM.

>  <BAO Format ID>  (102) 
BAO_0000357

>  <BAO Label>  (102) 
single protein format

>  <Assay Organism>  (102) 
None

>  <Target ChEMBL ID>  (102) 
CHEMBL2815

>  <Target Name>  (102) 
Nerve growth factor receptor Trk-A

>  <Target Organism>  (102) 
Homo sapiens

>  <Target Type>  (102) 
SINGLE PROTEIN

>  <Document ChEMBL ID>  (102) 
CHEMBL3886170

>  <Source Description>  (102) 
BindingDB Database

>  <Document Journal>  (102) 
nan

>  <Document Year>  (102) 
2015.0

>  <Active>  (102) 
1.0

>  <bits>  (102) 
<rdkit.DataStructs.cDataStructs.ExplicitBitVect object at 0x00000159F5492DC0>

>  <Group>  (102) 
G2

$$$$

     RDKit          2D

 34 37  0  0  0  0  0  0  0  0999 V2000
    6.7500   -1.2990    0.0000 C   0  0  0  0  0  0  0  0  0  0  0  0
    5.2500   -1.2990    0.0000 S   0  0  0  0  0  0  0  0  0  0  0  0
    5.2500    0.2010    0.0000 O   0  0  0  0  0  0  0  0  0  0  0  0
    5.2500   -2.7990    0.0000 O   0  0  0  0  0  0  0  0  0  0  0  0
    3.7500   -1.2990    0.0000 C   0  0  0  0  0  0  0  0  0  0  0  0
    3.0000    0.0000    0.0000 C   0  0  0  0  0  0  0  0  0  0  0  0
    1.5000    0.0000    0.0000 N   0  0  0  0  0  0  0  0  0  0  0  0
    0.7500   -1.2990    0.0000 C   0  0  0  0  0  0  0  0  0  0  0  0
   -0.7500   -1.2990    0.0000 C   0  0  0  0  0  0  0  0  0  0  0  0
   -1.5000    0.0000    0.0000 C   0  0  0  0  0  0  0  0  0  0  0  0
   -3.0000    0.0000    0.0000 C   0  0  0  0  0  0  0  0  0  0  0  0
   -3.7500    1.2990    0.0000 C   0  0  0  0  0  0  0  0  0  0  0  0
   -5.2500    1.2990    0.0000 C   0  0  0  0  0  0  0  0  0  0  0  0
   -6.0000    0.0000    0.0000 C   0  0  0  0  0  0  0  0  0  0  0  0
   -7.5000    0.0000    0.0000 N   0  0  0  0  0  0  0  0  0  0  0  0
   -8.2500    1.2990    0.0000 C   0  0  0  0  0  0  0  0  0  0  0  0
   -7.5000    2.5981    0.0000 O   0  0  0  0  0  0  0  0  0  0  0  0
   -9.7500    1.2990    0.0000 C   0  0  0  0  0  0  0  0  0  0  0  0
  -10.6317    0.0855    0.0000 N   0  0  0  0  0  0  0  0  0  0  0  0
  -12.0583    0.5490    0.0000 C   0  0  0  0  0  0  0  0  0  0  0  0
  -13.2718   -0.3326    0.0000 C   0  0  0  0  0  0  0  0  0  0  0  0
  -14.4853   -1.2143    0.0000 N   0  0  0  0  0  0  0  0  0  0  0  0
  -12.0583    2.0490    0.0000 C   0  0  0  0  0  0  0  0  0  0  0  0
  -10.6317    2.5126    0.0000 N   0  0  0  0  0  0  0  0  0  0  0  0
   -5.2500   -1.2990    0.0000 C   0  0  0  0  0  0  0  0  0  0  0  0
   -6.0000   -2.5981    0.0000 C   0  0  0  0  0  0  0  0  0  0  0  0
   -7.5000   -2.5981    0.0000 C   0  0  0  0  0  0  0  0  0  0  0  0
   -8.2500   -3.8971    0.0000 C   0  0  0  0  0  0  0  0  0  0  0  0
   -7.5000   -5.1962    0.0000 C   0  0  0  0  0  0  0  0  0  0  0  0
   -6.0000   -5.1962    0.0000 C   0  0  0  0  0  0  0  0  0  0  0  0
   -5.2500   -3.8971    0.0000 C   0  0  0  0  0  0  0  0  0  0  0  0
   -3.7500   -1.2990    0.0000 C   0  0  0  0  0  0  0  0  0  0  0  0
   -0.7500    1.2990    0.0000 C   0  0  0  0  0  0  0  0  0  0  0  0
    0.7500    1.2990    0.0000 C   0  0  0  0  0  0  0  0  0  0  0  0
  1  2  1  0
  2  3  2  0
  2  4  2  0
  2  5  1  0
  5  6  1  0
  6  7  1  0
  7  8  1  0
  8  9  1  0
  9 10  1  0
 10 11  1  0
 11 12  2  0
 12 13  1  0
 13 14  2  0
 14 15  1  0
 15 16  1  0
 16 17  2  0
 16 18  1  0
 18 19  2  0
 19 20  1  0
 20 21  1  0
 21 22  3  0
 20 23  2  0
 23 24  1  0
 14 25  1  0
 25 26  1  0
 26 27  2  0
 27 28  1  0
 28 29  1  0
 29 30  1  0
 30 31  1  0
 25 32  2  0
 10 33  1  0
 33 34  1  0
 34  7  1  0
 32 11  1  0
 24 18  1  0
 31 26  1  0
M  END
>  <Compound_ID>  (103) 
CHEMBL2158227

>  <Molecule Name>  (103) 
nan

>  <Molecular Weight>  (103) 
481.62

>  <AlogP>  (103) 
3.72

>  <Smiles>  (103) 
CS(=O)(=O)CCN1CCC(c2ccc(NC(=O)c3nc(C#N)c[nH]3)c(C3=CCCCC3)c2)CC1

>  <Standard Type>  (103) 
IC50

>  <Standard Relation>  (103) 
'='

>  <Standard Units>  (103) 
nM

>  <Standard Value>  (103) 
30.0

>  <Assay ChEMBL ID>  (103) 
CHEMBL2161435

>  <Assay Description>  (103) 
Inhibition of TRKA

>  <BAO Format ID>  (103) 
BAO_0000357

>  <BAO Label>  (103) 
single protein format

>  <Assay Organism>  (103) 
None

>  <Target ChEMBL ID>  (103) 
CHEMBL2815

>  <Target Name>  (103) 
Nerve growth factor receptor Trk-A

>  <Target Organism>  (103) 
Homo sapiens

>  <Target Type>  (103) 
SINGLE PROTEIN

>  <Document ChEMBL ID>  (103) 
CHEMBL2157860

>  <Source Description>  (103) 
Scientific Literature

>  <Document Journal>  (103) 
J Med Chem

>  <Document Year>  (103) 
2011.0

>  <Active>  (103) 
1.0

>  <bits>  (103) 
<rdkit.DataStructs.cDataStructs.ExplicitBitVect object at 0x00000159F5491230>

>  <Group>  (103) 
G2

$$$$

     RDKit          2D

 31 34  0  0  0  0  0  0  0  0999 V2000
    7.3934   -3.6905    0.0000 C   0  0  0  0  0  0  0  0  0  0  0  0
    5.9262   -3.3786    0.0000 C   0  0  0  0  0  0  0  0  0  0  0  0
    5.4627   -1.9520    0.0000 C   0  0  0  0  0  0  0  0  0  0  0  0
    6.4664   -0.8373    0.0000 N   0  0  0  0  0  0  0  0  0  0  0  0
    6.0029    0.5893    0.0000 C   0  0  0  0  0  0  0  0  0  0  0  0
    4.5356    0.9012    0.0000 C   0  0  0  0  0  0  0  0  0  0  0  0
    4.0721    2.3277    0.0000 F   0  0  0  0  0  0  0  0  0  0  0  0
    3.5320   -0.2136    0.0000 C   0  0  0  0  0  0  0  0  0  0  0  0
    3.9955   -1.6402    0.0000 C   0  0  0  0  0  0  0  0  0  0  0  0
    2.9918   -2.7549    0.0000 C   0  0  0  0  0  0  0  0  0  0  0  0
    3.3037   -4.2221    0.0000 C   0  0  0  0  0  0  0  0  0  0  0  0
    2.0046   -4.9721    0.0000 C   0  0  0  0  0  0  0  0  0  0  0  0
    0.8899   -3.9684    0.0000 C   0  0  0  0  0  0  0  0  0  0  0  0
    1.5000   -2.5981    0.0000 N   0  0  0  0  0  0  0  0  0  0  0  0
    0.7500   -1.2990    0.0000 C   0  0  0  0  0  0  0  0  0  0  0  0
    1.5000    0.0000    0.0000 C   0  0  0  0  0  0  0  0  0  0  0  0
    0.7500    1.2990    0.0000 C   0  0  0  0  0  0  0  0  0  0  0  0
   -0.7500    1.2990    0.0000 N   0  0  0  0  0  0  0  0  0  0  0  0
   -1.7537    2.4138    0.0000 N   0  0  0  0  0  0  0  0  0  0  0  0
   -3.1240    1.8037    0.0000 C   0  0  0  0  0  0  0  0  0  0  0  0
   -2.9672    0.3119    0.0000 C   0  0  0  0  0  0  0  0  0  0  0  0
   -4.0819   -0.6918    0.0000 C   0  0  0  0  0  0  0  0  0  0  0  0
   -3.7701   -2.1590    0.0000 O   0  0  0  0  0  0  0  0  0  0  0  0
   -5.5085   -0.2283    0.0000 N   0  0  0  0  0  0  0  0  0  0  0  0
   -6.6232   -1.2320    0.0000 C   0  0  0  0  0  0  0  0  0  0  0  0
   -8.0498   -0.7685    0.0000 C   0  0  0  0  0  0  0  0  0  0  0  0
   -7.5863    0.6581    0.0000 C   0  0  0  0  0  0  0  0  0  0  0  0
   -8.5134   -2.1951    0.0000 C   0  0  0  0  0  0  0  0  0  0  0  0
   -9.4764   -0.3049    0.0000 O   0  0  0  0  0  0  0  0  0  0  0  0
   -1.5000    0.0000    0.0000 C   0  0  0  0  0  0  0  0  0  0  0  0
   -0.7500   -1.2990    0.0000 N   0  0  0  0  0  0  0  0  0  0  0  0
  1  2  1  0
  2  3  1  0
  3  4  2  0
  4  5  1  0
  5  6  2  0
  6  7  1  0
  6  8  1  0
  8  9  2  0
  9 10  1  0
 10 11  1  0
 11 12  1  0
 12 13  1  0
 13 14  1  0
 14 15  1  0
 15 16  1  0
 16 17  2  0
 17 18  1  0
 18 19  1  0
 19 20  2  0
 20 21  1  0
 21 22  1  0
 22 23  2  0
 22 24  1  0
 24 25  1  0
 25 26  1  0
 26 27  1  0
 26 28  1  0
 26 29  1  0
 21 30  2  0
 30 31  1  0
  9  3  1  0
 14 10  1  0
 31 15  2  0
 30 18  1  0
M  END
>  <Compound_ID>  (104) 
CHEMBL3676068

>  <Molecule Name>  (104) 
nan

>  <Molecular Weight>  (104) 
426.5

>  <AlogP>  (104) 
2.67

>  <Smiles>  (104) 
CCc1ncc(F)cc1C1CCCN1c1ccn2ncc(C(=O)NCC(C)(C)O)c2n1

>  <Standard Type>  (104) 
IC50

>  <Standard Relation>  (104) 
'='

>  <Standard Units>  (104) 
nM

>  <Standard Value>  (104) 
71.8

>  <Assay ChEMBL ID>  (104) 
CHEMBL3887070

>  <Assay Description>  (104) 
ELISA Assay: An enzyme-linked immunosorbant assay (ELISA) was used to assess TrkA kinase activity in the presence of inhibitors. Immulon 4HBX 384-well microtiter plates (Thermo part #8755) were coated with a 0.025 mg/mL solution of poly (Glu, Ala, Tyr; 6:3:1; Sigma P3899). Various concentrations of test compound, 2.5 nM TrkA (Invitrogen Corp., histidine-tagged recombinant human TrkA, cytoplasmic domain), and 500 uM ATP were incubated for 25 minutes at ambient temperature in the coated plates while shaking The assay buffer consisted of 25 mM MOPS pH 7.5, 0.005% (v/v) Triton X-100 and 5 mM MgCl2. The reaction mixture was removed from the plate by washing with PBS containing 0.1% (v/v) Tween 20. The phosphorylated reaction product was detected using 0.2 ug/mL of a phosphotyrosine specific monoclonal antibody (clone PY20) conjugated to horseradish peroxidase in conjunction with the TMB Peroxidase Substrate System (KPL).

>  <BAO Format ID>  (104) 
BAO_0000357

>  <BAO Label>  (104) 
single protein format

>  <Assay Organism>  (104) 
None

>  <Target ChEMBL ID>  (104) 
CHEMBL2815

>  <Target Name>  (104) 
Nerve growth factor receptor Trk-A

>  <Target Organism>  (104) 
Homo sapiens

>  <Target Type>  (104) 
SINGLE PROTEIN

>  <Document ChEMBL ID>  (104) 
CHEMBL3638907

>  <Source Description>  (104) 
BindingDB Database

>  <Document Journal>  (104) 
nan

>  <Document Year>  (104) 
2014.0

>  <Active>  (104) 
1.0

>  <bits>  (104) 
<rdkit.DataStructs.cDataStructs.ExplicitBitVect object at 0x00000159F54911C0>

>  <Group>  (104) 
G2

$$$$

     RDKit          2D

 34 38  0  0  0  0  0  0  0  0999 V2000
   -2.9520   -4.6564    0.0000 C   0  0  0  0  0  0  0  0  0  0  0  0
   -2.6401   -3.1891    0.0000 C   0  0  0  0  0  0  0  0  0  0  0  0
   -3.7548   -2.1855    0.0000 C   0  0  0  0  0  0  0  0  0  0  0  0
   -1.2135   -2.7256    0.0000 N   0  0  0  0  0  0  0  0  0  0  0  0
   -0.0000   -3.6073    0.0000 C   0  0  0  0  0  0  0  0  0  0  0  0
    1.2135   -2.7256    0.0000 C   0  0  0  0  0  0  0  0  0  0  0  0
    2.6401   -3.1891    0.0000 C   0  0  0  0  0  0  0  0  0  0  0  0
    3.7548   -2.1855    0.0000 O   0  0  0  0  0  0  0  0  0  0  0  0
    2.9520   -4.6564    0.0000 C   0  0  0  0  0  0  0  0  0  0  0  0
    1.8373   -5.6601    0.0000 C   0  0  0  0  0  0  0  0  0  0  0  0
    2.1491   -7.1273    0.0000 N   0  0  0  0  0  0  0  0  0  0  0  0
    3.5757   -7.5908    0.0000 C   0  0  0  0  0  0  0  0  0  0  0  0
    4.6904   -6.5871    0.0000 C   0  0  0  0  0  0  0  0  0  0  0  0
    6.1170   -7.0506    0.0000 N   0  0  0  0  0  0  0  0  0  0  0  0
    6.4289   -8.5179    0.0000 C   0  0  0  0  0  0  0  0  0  0  0  0
    5.3142   -9.5216    0.0000 O   0  0  0  0  0  0  0  0  0  0  0  0
    7.8555   -8.9814    0.0000 C   0  0  0  0  0  0  0  0  0  0  0  0
    8.1673  -10.4486    0.0000 C   0  0  0  0  0  0  0  0  0  0  0  0
    7.1636  -11.5633    0.0000 C   0  0  0  0  0  0  0  0  0  0  0  0
    7.9136  -12.8624    0.0000 N   0  0  0  0  0  0  0  0  0  0  0  0
    7.4501  -14.2890    0.0000 C   0  0  0  0  0  0  0  0  0  0  0  0
    8.4538  -15.4037    0.0000 C   0  0  0  0  0  0  0  0  0  0  0  0
    7.9903  -16.8303    0.0000 Cl  0  0  0  0  0  0  0  0  0  0  0  0
    9.9210  -15.0918    0.0000 C   0  0  0  0  0  0  0  0  0  0  0  0
   10.3846  -13.6652    0.0000 C   0  0  0  0  0  0  0  0  0  0  0  0
    9.3809  -12.5505    0.0000 C   0  0  0  0  0  0  0  0  0  0  0  0
    9.5377  -11.0587    0.0000 N   0  0  0  0  0  0  0  0  0  0  0  0
    4.3786   -5.1199    0.0000 C   0  0  0  0  0  0  0  0  0  0  0  0
    0.7500   -1.2990    0.0000 C   0  0  0  0  0  0  0  0  0  0  0  0
    1.5000    0.0000    0.0000 C   0  0  0  0  0  0  0  0  0  0  0  0
    0.7500    1.2990    0.0000 N   0  0  0  0  0  0  0  0  0  0  0  0
   -0.7500    1.2990    0.0000 C   0  0  0  0  0  0  0  0  0  0  0  0
   -1.5000    0.0000    0.0000 N   0  0  0  0  0  0  0  0  0  0  0  0
   -0.7500   -1.2990    0.0000 C   0  0  0  0  0  0  0  0  0  0  0  0
  1  2  1  0
  2  3  1  0
  2  4  1  0
  4  5  1  0
  5  6  2  0
  6  7  1  0
  7  8  2  0
  7  9  1  0
  9 10  2  0
 10 11  1  0
 11 12  2  0
 12 13  1  0
 13 14  1  0
 14 15  1  0
 15 16  2  0
 15 17  1  0
 17 18  1  0
 18 19  2  0
 19 20  1  0
 20 21  1  0
 21 22  2  0
 22 23  1  0
 22 24  1  0
 24 25  2  0
 25 26  1  0
 26 27  2  0
 13 28  2  0
  6 29  1  0
 29 30  2  0
 30 31  1  0
 31 32  2  0
 32 33  1  0
 33 34  2  0
 34  4  1  0
 28  9  1  0
 34 29  1  0
 27 18  1  0
 26 20  1  0
M  END
>  <Compound_ID>  (105) 
CHEMBL3661520

>  <Molecule Name>  (105) 
nan

>  <Molecular Weight>  (105) 
473.92

>  <AlogP>  (105) 
4.12

>  <Smiles>  (105) 
CC(C)n1cc(C(=O)c2cncc(NC(=O)Cc3cn4cc(Cl)ccc4n3)c2)c2cncnc21

>  <Standard Type>  (105) 
IC50

>  <Standard Relation>  (105) 
'='

>  <Standard Units>  (105) 
nM

>  <Standard Value>  (105) 
95.7

>  <Assay ChEMBL ID>  (105) 
CHEMBL3887033

>  <Assay Description>  (105) 
Enzyme Assay: Isolated TRK Enzyme assays use the HTRF KinEASE-TK kit (Cisbio Cat# 62TK0PEJ) with recombinant His-tagged cytoplasmic domains of each TRK receptor sourced from Invitrogen (see table below). This activity-assay measures the phosphorylation of tyrosine residues within a substrate from the HTRF kit which has been validated by Cisbio for a variety of tyrosine kinases including the TRK receptors. Assay details: Target:TRKA; Invitrogen Cat# PV3144; Amino acids:aa 441-796; FAC enzyme:4nM; FAC ATP:40uM; Assay Reaction Time:35min.

>  <BAO Format ID>  (105) 
BAO_0000357

>  <BAO Label>  (105) 
single protein format

>  <Assay Organism>  (105) 
None

>  <Target ChEMBL ID>  (105) 
CHEMBL2815

>  <Target Name>  (105) 
Nerve growth factor receptor Trk-A

>  <Target Organism>  (105) 
Homo sapiens

>  <Target Type>  (105) 
SINGLE PROTEIN

>  <Document ChEMBL ID>  (105) 
CHEMBL3639348

>  <Source Description>  (105) 
BindingDB Database

>  <Document Journal>  (105) 
nan

>  <Document Year>  (105) 
2014.0

>  <Active>  (105) 
1.0

>  <bits>  (105) 
<rdkit.DataStructs.cDataStructs.ExplicitBitVect object at 0x00000159F5491150>

>  <Group>  (105) 
G2

$$$$

     RDKit          2D

 33 37  0  0  0  0  0  0  0  0999 V2000
   -2.9520   -4.6564    0.0000 C   0  0  0  0  0  0  0  0  0  0  0  0
   -2.6401   -3.1891    0.0000 C   0  0  0  0  0  0  0  0  0  0  0  0
   -3.7548   -2.1855    0.0000 C   0  0  0  0  0  0  0  0  0  0  0  0
   -1.2135   -2.7256    0.0000 N   0  0  0  0  0  0  0  0  0  0  0  0
   -0.0000   -3.6073    0.0000 C   0  0  0  0  0  0  0  0  0  0  0  0
    1.2135   -2.7256    0.0000 C   0  0  0  0  0  0  0  0  0  0  0  0
    2.6401   -3.1891    0.0000 C   0  0  0  0  0  0  0  0  0  0  0  0
    3.7548   -2.1855    0.0000 O   0  0  0  0  0  0  0  0  0  0  0  0
    2.9520   -4.6564    0.0000 C   0  0  0  0  0  0  0  0  0  0  0  0
    1.8373   -5.6601    0.0000 C   0  0  0  0  0  0  0  0  0  0  0  0
    2.1491   -7.1273    0.0000 N   0  0  0  0  0  0  0  0  0  0  0  0
    3.5757   -7.5908    0.0000 C   0  0  0  0  0  0  0  0  0  0  0  0
    4.6904   -6.5871    0.0000 C   0  0  0  0  0  0  0  0  0  0  0  0
    6.1170   -7.0506    0.0000 N   0  0  0  0  0  0  0  0  0  0  0  0
    6.4289   -8.5179    0.0000 C   0  0  0  0  0  0  0  0  0  0  0  0
    5.3142   -9.5216    0.0000 O   0  0  0  0  0  0  0  0  0  0  0  0
    7.8555   -8.9814    0.0000 C   0  0  0  0  0  0  0  0  0  0  0  0
    8.1673  -10.4486    0.0000 C   0  0  0  0  0  0  0  0  0  0  0  0
    7.0526  -11.4523    0.0000 C   0  0  0  0  0  0  0  0  0  0  0  0
    7.3645  -12.9195    0.0000 C   0  0  0  0  0  0  0  0  0  0  0  0
    8.7911  -13.3831    0.0000 N   0  0  0  0  0  0  0  0  0  0  0  0
    9.4012  -14.7534    0.0000 C   0  0  0  0  0  0  0  0  0  0  0  0
   10.8930  -14.5966    0.0000 C   0  0  0  0  0  0  0  0  0  0  0  0
   11.2048  -13.1294    0.0000 N   0  0  0  0  0  0  0  0  0  0  0  0
    9.9058  -12.3794    0.0000 C   0  0  0  0  0  0  0  0  0  0  0  0
    9.5939  -10.9121    0.0000 C   0  0  0  0  0  0  0  0  0  0  0  0
    4.3786   -5.1199    0.0000 C   0  0  0  0  0  0  0  0  0  0  0  0
    0.7500   -1.2990    0.0000 C   0  0  0  0  0  0  0  0  0  0  0  0
    1.5000    0.0000    0.0000 C   0  0  0  0  0  0  0  0  0  0  0  0
    0.7500    1.2990    0.0000 N   0  0  0  0  0  0  0  0  0  0  0  0
   -0.7500    1.2990    0.0000 C   0  0  0  0  0  0  0  0  0  0  0  0
   -1.5000    0.0000    0.0000 N   0  0  0  0  0  0  0  0  0  0  0  0
   -0.7500   -1.2990    0.0000 C   0  0  0  0  0  0  0  0  0  0  0  0
  1  2  1  0
  2  3  1  0
  2  4  1  0
  4  5  1  0
  5  6  2  0
  6  7  1  0
  7  8  2  0
  7  9  1  0
  9 10  2  0
 10 11  1  0
 11 12  2  0
 12 13  1  0
 13 14  1  0
 14 15  1  0
 15 16  2  0
 15 17  1  0
 17 18  1  0
 18 19  1  0
 19 20  2  0
 20 21  1  0
 21 22  1  0
 22 23  2  0
 23 24  1  0
 24 25  2  0
 25 26  1  0
 13 27  2  0
  6 28  1  0
 28 29  2  0
 29 30  1  0
 30 31  2  0
 31 32  1  0
 32 33  2  0
 33  4  1  0
 27  9  1  0
 33 28  1  0
 26 18  2  0
 25 21  1  0
M  END
>  <Compound_ID>  (106) 
CHEMBL3661480

>  <Molecule Name>  (106) 
nan

>  <Molecular Weight>  (106) 
439.48

>  <AlogP>  (106) 
3.47

>  <Smiles>  (106) 
CC(C)n1cc(C(=O)c2cncc(NC(=O)Cc3ccn4ccnc4c3)c2)c2cncnc21

>  <Standard Type>  (106) 
IC50

>  <Standard Relation>  (106) 
'='

>  <Standard Units>  (106) 
nM

>  <Standard Value>  (106) 
70.8

>  <Assay ChEMBL ID>  (106) 
CHEMBL3887033

>  <Assay Description>  (106) 
Enzyme Assay: Isolated TRK Enzyme assays use the HTRF KinEASE-TK kit (Cisbio Cat# 62TK0PEJ) with recombinant His-tagged cytoplasmic domains of each TRK receptor sourced from Invitrogen (see table below). This activity-assay measures the phosphorylation of tyrosine residues within a substrate from the HTRF kit which has been validated by Cisbio for a variety of tyrosine kinases including the TRK receptors. Assay details: Target:TRKA; Invitrogen Cat# PV3144; Amino acids:aa 441-796; FAC enzyme:4nM; FAC ATP:40uM; Assay Reaction Time:35min.

>  <BAO Format ID>  (106) 
BAO_0000357

>  <BAO Label>  (106) 
single protein format

>  <Assay Organism>  (106) 
None

>  <Target ChEMBL ID>  (106) 
CHEMBL2815

>  <Target Name>  (106) 
Nerve growth factor receptor Trk-A

>  <Target Organism>  (106) 
Homo sapiens

>  <Target Type>  (106) 
SINGLE PROTEIN

>  <Document ChEMBL ID>  (106) 
CHEMBL3639348

>  <Source Description>  (106) 
BindingDB Database

>  <Document Journal>  (106) 
nan

>  <Document Year>  (106) 
2014.0

>  <Active>  (106) 
1.0

>  <bits>  (106) 
<rdkit.DataStructs.cDataStructs.ExplicitBitVect object at 0x00000159F5491000>

>  <Group>  (106) 
G2

$$$$

     RDKit          2D

 36 39  0  0  0  0  0  0  0  0999 V2000
   -3.7500   -6.4952    0.0000 C   0  0  0  0  0  0  0  0  0  0  0  0
   -3.0000   -5.1962    0.0000 O   0  0  0  0  0  0  0  0  0  0  0  0
   -1.5000   -5.1962    0.0000 C   0  0  0  0  0  0  0  0  0  0  0  0
   -0.7500   -3.8971    0.0000 C   0  0  0  0  0  0  0  0  0  0  0  0
    0.7500   -3.8971    0.0000 C   0  0  0  0  0  0  0  0  0  0  0  0
    1.5000   -2.5981    0.0000 N   0  0  0  0  0  0  0  0  0  0  0  0
    0.7500   -1.2990    0.0000 C   0  0  0  0  0  0  0  0  0  0  0  0
    1.5000    0.0000    0.0000 C   0  0  0  0  0  0  0  0  0  0  0  0
    3.0000    0.0000    0.0000 C   0  0  0  0  0  0  0  0  0  0  0  0
    4.5000    0.0000    0.0000 N   0  0  0  0  0  0  0  0  0  0  0  0
    0.7500    1.2990    0.0000 C   0  0  0  0  0  0  0  0  0  0  0  0
   -0.7500    1.2990    0.0000 N   0  0  0  0  0  0  0  0  0  0  0  0
   -1.5000    0.0000    0.0000 C   0  0  0  0  0  0  0  0  0  0  0  0
   -3.0000    0.0000    0.0000 C   0  0  0  0  0  0  0  0  0  0  0  0
   -3.7500   -1.2990    0.0000 C   0  0  0  0  0  0  0  0  0  0  0  0
   -5.2500   -1.2990    0.0000 O   0  0  0  0  0  0  0  0  0  0  0  0
   -6.0000    0.0000    0.0000 C   0  0  0  0  0  0  0  0  0  0  0  0
   -7.5000   -0.0000    0.0000 C   0  0  0  0  0  0  0  0  0  0  0  0
   -8.2500    1.2990    0.0000 C   0  0  0  0  0  0  0  0  0  0  0  0
   -9.7500    1.2990    0.0000 N   0  0  0  0  0  0  0  0  0  0  0  0
  -10.5000    2.5981    0.0000 C   0  0  0  0  0  0  0  0  0  0  0  0
  -12.0000    2.5981    0.0000 C   0  0  0  0  0  0  0  0  0  0  0  0
  -12.7500    1.2990    0.0000 N   0  0  0  0  0  0  0  0  0  0  0  0
  -14.2500    1.2990    0.0000 C   0  0  0  0  0  0  0  0  0  0  0  0
  -12.0000    0.0000    0.0000 C   0  0  0  0  0  0  0  0  0  0  0  0
  -10.5000    0.0000    0.0000 C   0  0  0  0  0  0  0  0  0  0  0  0
   -3.0000   -2.5981    0.0000 C   0  0  0  0  0  0  0  0  0  0  0  0
   -3.7500   -3.8971    0.0000 O   0  0  0  0  0  0  0  0  0  0  0  0
   -5.2500   -3.8971    0.0000 C   0  0  0  0  0  0  0  0  0  0  0  0
   -1.5000   -2.5981    0.0000 C   0  0  0  0  0  0  0  0  0  0  0  0
   -0.7500   -1.2990    0.0000 C   0  0  0  0  0  0  0  0  0  0  0  0
    1.5000   -5.1962    0.0000 C   0  0  0  0  0  0  0  0  0  0  0  0
    3.0000   -5.1962    0.0000 Cl  0  0  0  0  0  0  0  0  0  0  0  0
    0.7500   -6.4952    0.0000 C   0  0  0  0  0  0  0  0  0  0  0  0
   -0.7500   -6.4952    0.0000 C   0  0  0  0  0  0  0  0  0  0  0  0
   -1.5000   -7.7942    0.0000 Cl  0  0  0  0  0  0  0  0  0  0  0  0
  1  2  1  0
  2  3  1  0
  3  4  2  0
  4  5  1  0
  5  6  1  0
  6  7  1  0
  7  8  2  0
  8  9  1  0
  9 10  3  0
  8 11  1  0
 11 12  2  0
 12 13  1  0
 13 14  2  0
 14 15  1  0
 15 16  1  0
 16 17  1  0
 17 18  1  0
 18 19  1  0
 19 20  1  0
 20 21  1  0
 21 22  1  0
 22 23  1  0
 23 24  1  0
 23 25  1  0
 25 26  1  0
 15 27  2  0
 27 28  1  0
 28 29  1  0
 27 30  1  0
 30 31  2  0
  5 32  2  0
 32 33  1  0
 32 34  1  0
 34 35  2  0
 35 36  1  0
 35  3  1  0
 31  7  1  0
 31 13  1  0
 26 20  1  0
M  END
>  <Compound_ID>  (107) 
CHEMBL288441

>  <Molecule Name>  (107) 
BOSUTINIB

>  <Molecular Weight>  (107) 
530.46

>  <AlogP>  (107) 
5.19

>  <Smiles>  (107) 
COc1cc(Nc2c(C#N)cnc3cc(OCCCN4CCN(C)CC4)c(OC)cc23)c(Cl)cc1Cl

>  <Standard Type>  (107) 
IC50

>  <Standard Relation>  (107) 
'='

>  <Standard Units>  (107) 
nM

>  <Standard Value>  (107) 
22.0

>  <Assay ChEMBL ID>  (107) 
CHEMBL1244591

>  <Assay Description>  (107) 
Inhibition of TRKA

>  <BAO Format ID>  (107) 
BAO_0000357

>  <BAO Label>  (107) 
single protein format

>  <Assay Organism>  (107) 
None

>  <Target ChEMBL ID>  (107) 
CHEMBL2815

>  <Target Name>  (107) 
Nerve growth factor receptor Trk-A

>  <Target Organism>  (107) 
Homo sapiens

>  <Target Type>  (107) 
SINGLE PROTEIN

>  <Document ChEMBL ID>  (107) 
CHEMBL1240341

>  <Source Description>  (107) 
Scientific Literature

>  <Document Journal>  (107) 
Leukemia

>  <Document Year>  (107) 
2009.0

>  <Active>  (107) 
1.0

>  <bits>  (107) 
<rdkit.DataStructs.cDataStructs.ExplicitBitVect object at 0x00000159F5492D50>

>  <Group>  (107) 
G2

$$$$

     RDKit          2D

 33 37  0  0  0  0  0  0  0  0999 V2000
   -2.9520   -4.6564    0.0000 C   0  0  0  0  0  0  0  0  0  0  0  0
   -2.6401   -3.1891    0.0000 C   0  0  0  0  0  0  0  0  0  0  0  0
   -3.7548   -2.1855    0.0000 C   0  0  0  0  0  0  0  0  0  0  0  0
   -1.2135   -2.7256    0.0000 N   0  0  0  0  0  0  0  0  0  0  0  0
   -0.0000   -3.6073    0.0000 C   0  0  0  0  0  0  0  0  0  0  0  0
    1.2135   -2.7256    0.0000 C   0  0  0  0  0  0  0  0  0  0  0  0
    2.6401   -3.1891    0.0000 C   0  0  0  0  0  0  0  0  0  0  0  0
    3.7548   -2.1855    0.0000 O   0  0  0  0  0  0  0  0  0  0  0  0
    2.9520   -4.6564    0.0000 C   0  0  0  0  0  0  0  0  0  0  0  0
    1.8373   -5.6601    0.0000 C   0  0  0  0  0  0  0  0  0  0  0  0
    2.1491   -7.1273    0.0000 N   0  0  0  0  0  0  0  0  0  0  0  0
    3.5757   -7.5908    0.0000 C   0  0  0  0  0  0  0  0  0  0  0  0
    4.6904   -6.5871    0.0000 C   0  0  0  0  0  0  0  0  0  0  0  0
    6.1170   -7.0506    0.0000 N   0  0  0  0  0  0  0  0  0  0  0  0
    6.4289   -8.5179    0.0000 C   0  0  0  0  0  0  0  0  0  0  0  0
    5.3142   -9.5216    0.0000 O   0  0  0  0  0  0  0  0  0  0  0  0
    7.8555   -8.9814    0.0000 C   0  0  0  0  0  0  0  0  0  0  0  0
    8.1673  -10.4486    0.0000 C   0  0  0  0  0  0  0  0  0  0  0  0
    7.0526  -11.4523    0.0000 C   0  0  0  0  0  0  0  0  0  0  0  0
    7.3645  -12.9195    0.0000 C   0  0  0  0  0  0  0  0  0  0  0  0
    8.7911  -13.3831    0.0000 C   0  0  0  0  0  0  0  0  0  0  0  0
    9.4012  -14.7534    0.0000 O   0  0  0  0  0  0  0  0  0  0  0  0
   10.8930  -14.5966    0.0000 C   0  0  0  0  0  0  0  0  0  0  0  0
   11.2048  -13.1294    0.0000 N   0  0  0  0  0  0  0  0  0  0  0  0
    9.9058  -12.3794    0.0000 C   0  0  0  0  0  0  0  0  0  0  0  0
    9.5939  -10.9121    0.0000 C   0  0  0  0  0  0  0  0  0  0  0  0
    4.3786   -5.1199    0.0000 C   0  0  0  0  0  0  0  0  0  0  0  0
    0.7500   -1.2990    0.0000 C   0  0  0  0  0  0  0  0  0  0  0  0
    1.5000    0.0000    0.0000 C   0  0  0  0  0  0  0  0  0  0  0  0
    0.7500    1.2990    0.0000 N   0  0  0  0  0  0  0  0  0  0  0  0
   -0.7500    1.2990    0.0000 C   0  0  0  0  0  0  0  0  0  0  0  0
   -1.5000    0.0000    0.0000 N   0  0  0  0  0  0  0  0  0  0  0  0
   -0.7500   -1.2990    0.0000 C   0  0  0  0  0  0  0  0  0  0  0  0
  1  2  1  0
  2  3  1  0
  2  4  1  0
  4  5  1  0
  5  6  2  0
  6  7  1  0
  7  8  2  0
  7  9  1  0
  9 10  2  0
 10 11  1  0
 11 12  2  0
 12 13  1  0
 13 14  1  0
 14 15  1  0
 15 16  2  0
 15 17  1  0
 17 18  1  0
 18 19  2  0
 19 20  1  0
 20 21  2  0
 21 22  1  0
 22 23  1  0
 23 24  2  0
 24 25  1  0
 25 26  2  0
 13 27  2  0
  6 28  1  0
 28 29  2  0
 29 30  1  0
 30 31  2  0
 31 32  1  0
 32 33  2  0
 33  4  1  0
 27  9  1  0
 33 28  1  0
 26 18  1  0
 25 21  1  0
M  END
>  <Compound_ID>  (108) 
CHEMBL3661484

>  <Molecule Name>  (108) 
nan

>  <Molecular Weight>  (108) 
440.46

>  <AlogP>  (108) 
3.96

>  <Smiles>  (108) 
CC(C)n1cc(C(=O)c2cncc(NC(=O)Cc3ccc4ocnc4c3)c2)c2cncnc21

>  <Standard Type>  (108) 
IC50

>  <Standard Relation>  (108) 
'='

>  <Standard Units>  (108) 
nM

>  <Standard Value>  (108) 
21.7

>  <Assay ChEMBL ID>  (108) 
CHEMBL3887033

>  <Assay Description>  (108) 
Enzyme Assay: Isolated TRK Enzyme assays use the HTRF KinEASE-TK kit (Cisbio Cat# 62TK0PEJ) with recombinant His-tagged cytoplasmic domains of each TRK receptor sourced from Invitrogen (see table below). This activity-assay measures the phosphorylation of tyrosine residues within a substrate from the HTRF kit which has been validated by Cisbio for a variety of tyrosine kinases including the TRK receptors. Assay details: Target:TRKA; Invitrogen Cat# PV3144; Amino acids:aa 441-796; FAC enzyme:4nM; FAC ATP:40uM; Assay Reaction Time:35min.

>  <BAO Format ID>  (108) 
BAO_0000357

>  <BAO Label>  (108) 
single protein format

>  <Assay Organism>  (108) 
None

>  <Target ChEMBL ID>  (108) 
CHEMBL2815

>  <Target Name>  (108) 
Nerve growth factor receptor Trk-A

>  <Target Organism>  (108) 
Homo sapiens

>  <Target Type>  (108) 
SINGLE PROTEIN

>  <Document ChEMBL ID>  (108) 
CHEMBL3639348

>  <Source Description>  (108) 
BindingDB Database

>  <Document Journal>  (108) 
nan

>  <Document Year>  (108) 
2014.0

>  <Active>  (108) 
1.0

>  <bits>  (108) 
<rdkit.DataStructs.cDataStructs.ExplicitBitVect object at 0x00000159F5490E40>

>  <Group>  (108) 
G2

$$$$

     RDKit          2D

 33 37  0  0  0  0  0  0  0  0999 V2000
   -2.9520   -4.6564    0.0000 C   0  0  0  0  0  0  0  0  0  0  0  0
   -2.6401   -3.1891    0.0000 C   0  0  0  0  0  0  0  0  0  0  0  0
   -3.7548   -2.1855    0.0000 C   0  0  0  0  0  0  0  0  0  0  0  0
   -1.2135   -2.7256    0.0000 N   0  0  0  0  0  0  0  0  0  0  0  0
   -0.0000   -3.6073    0.0000 C   0  0  0  0  0  0  0  0  0  0  0  0
    1.2135   -2.7256    0.0000 C   0  0  0  0  0  0  0  0  0  0  0  0
    2.6401   -3.1891    0.0000 C   0  0  0  0  0  0  0  0  0  0  0  0
    3.7548   -2.1855    0.0000 O   0  0  0  0  0  0  0  0  0  0  0  0
    2.9520   -4.6564    0.0000 C   0  0  0  0  0  0  0  0  0  0  0  0
    1.8373   -5.6601    0.0000 C   0  0  0  0  0  0  0  0  0  0  0  0
    2.1491   -7.1273    0.0000 N   0  0  0  0  0  0  0  0  0  0  0  0
    3.5757   -7.5908    0.0000 C   0  0  0  0  0  0  0  0  0  0  0  0
    4.6904   -6.5871    0.0000 C   0  0  0  0  0  0  0  0  0  0  0  0
    6.1170   -7.0506    0.0000 N   0  0  0  0  0  0  0  0  0  0  0  0
    6.4289   -8.5179    0.0000 C   0  0  0  0  0  0  0  0  0  0  0  0
    5.3142   -9.5216    0.0000 O   0  0  0  0  0  0  0  0  0  0  0  0
    7.8555   -8.9814    0.0000 C   0  0  0  0  0  0  0  0  0  0  0  0
    8.1673  -10.4486    0.0000 N   0  0  0  0  0  0  0  0  0  0  0  0
    7.1636  -11.5633    0.0000 N   0  0  0  0  0  0  0  0  0  0  0  0
    7.9136  -12.8624    0.0000 C   0  0  0  0  0  0  0  0  0  0  0  0
    9.3809  -12.5505    0.0000 C   0  0  0  0  0  0  0  0  0  0  0  0
   10.5944  -13.4322    0.0000 C   0  0  0  0  0  0  0  0  0  0  0  0
   11.9647  -12.8221    0.0000 C   0  0  0  0  0  0  0  0  0  0  0  0
   12.1215  -11.3303    0.0000 C   0  0  0  0  0  0  0  0  0  0  0  0
   10.9080  -10.4486    0.0000 C   0  0  0  0  0  0  0  0  0  0  0  0
    9.5377  -11.0587    0.0000 C   0  0  0  0  0  0  0  0  0  0  0  0
    4.3786   -5.1199    0.0000 C   0  0  0  0  0  0  0  0  0  0  0  0
    0.7500   -1.2990    0.0000 C   0  0  0  0  0  0  0  0  0  0  0  0
    1.5000    0.0000    0.0000 C   0  0  0  0  0  0  0  0  0  0  0  0
    0.7500    1.2990    0.0000 N   0  0  0  0  0  0  0  0  0  0  0  0
   -0.7500    1.2990    0.0000 C   0  0  0  0  0  0  0  0  0  0  0  0
   -1.5000    0.0000    0.0000 N   0  0  0  0  0  0  0  0  0  0  0  0
   -0.7500   -1.2990    0.0000 C   0  0  0  0  0  0  0  0  0  0  0  0
  1  2  1  0
  2  3  1  0
  2  4  1  0
  4  5  1  0
  5  6  2  0
  6  7  1  0
  7  8  2  0
  7  9  1  0
  9 10  2  0
 10 11  1  0
 11 12  2  0
 12 13  1  0
 13 14  1  0
 14 15  1  0
 15 16  2  0
 15 17  1  0
 17 18  1  0
 18 19  1  0
 19 20  2  0
 20 21  1  0
 21 22  2  0
 22 23  1  0
 23 24  2  0
 24 25  1  0
 25 26  2  0
 13 27  2  0
  6 28  1  0
 28 29  2  0
 29 30  1  0
 30 31  2  0
 31 32  1  0
 32 33  2  0
 33  4  1  0
 27  9  1  0
 33 28  1  0
 26 18  1  0
 26 21  1  0
M  END
>  <Compound_ID>  (109) 
CHEMBL3661497

>  <Molecule Name>  (109) 
nan

>  <Molecular Weight>  (109) 
439.48

>  <AlogP>  (109) 
3.63

>  <Smiles>  (109) 
CC(C)n1cc(C(=O)c2cncc(NC(=O)Cn3ncc4ccccc43)c2)c2cncnc21

>  <Standard Type>  (109) 
IC50

>  <Standard Relation>  (109) 
'='

>  <Standard Units>  (109) 
nM

>  <Standard Value>  (109) 
41.7

>  <Assay ChEMBL ID>  (109) 
CHEMBL3887033

>  <Assay Description>  (109) 
Enzyme Assay: Isolated TRK Enzyme assays use the HTRF KinEASE-TK kit (Cisbio Cat# 62TK0PEJ) with recombinant His-tagged cytoplasmic domains of each TRK receptor sourced from Invitrogen (see table below). This activity-assay measures the phosphorylation of tyrosine residues within a substrate from the HTRF kit which has been validated by Cisbio for a variety of tyrosine kinases including the TRK receptors. Assay details: Target:TRKA; Invitrogen Cat# PV3144; Amino acids:aa 441-796; FAC enzyme:4nM; FAC ATP:40uM; Assay Reaction Time:35min.

>  <BAO Format ID>  (109) 
BAO_0000357

>  <BAO Label>  (109) 
single protein format

>  <Assay Organism>  (109) 
None

>  <Target ChEMBL ID>  (109) 
CHEMBL2815

>  <Target Name>  (109) 
Nerve growth factor receptor Trk-A

>  <Target Organism>  (109) 
Homo sapiens

>  <Target Type>  (109) 
SINGLE PROTEIN

>  <Document ChEMBL ID>  (109) 
CHEMBL3639348

>  <Source Description>  (109) 
BindingDB Database

>  <Document Journal>  (109) 
nan

>  <Document Year>  (109) 
2014.0

>  <Active>  (109) 
1.0

>  <bits>  (109) 
<rdkit.DataStructs.cDataStructs.ExplicitBitVect object at 0x00000159F5492CE0>

>  <Group>  (109) 
G2

$$$$

     RDKit          2D

 28 31  0  0  0  0  0  0  0  0999 V2000
   -4.6904   -6.5871    0.0000 N   0  0  0  0  0  0  0  0  0  0  0  0
   -4.3786   -5.1199    0.0000 C   0  0  0  0  0  0  0  0  0  0  0  0
   -5.4933   -4.1162    0.0000 O   0  0  0  0  0  0  0  0  0  0  0  0
   -2.9520   -4.6564    0.0000 C   0  0  0  0  0  0  0  0  0  0  0  0
   -1.8373   -5.6601    0.0000 O   0  0  0  0  0  0  0  0  0  0  0  0
   -2.6401   -3.1891    0.0000 N   0  0  0  0  0  0  0  0  0  0  0  0
   -1.2135   -2.7256    0.0000 C   0  0  0  0  0  0  0  0  0  0  0  0
   -0.0000   -3.6073    0.0000 C   0  0  0  0  0  0  0  0  0  0  0  0
    1.2135   -2.7256    0.0000 N   0  0  0  0  0  0  0  0  0  0  0  0
    0.7500   -1.2990    0.0000 N   0  0  0  0  0  0  0  0  0  0  0  0
    1.5000    0.0000    0.0000 C   0  0  0  0  0  0  0  0  0  0  0  0
    0.7500    1.2990    0.0000 C   0  0  0  0  0  0  0  0  0  0  0  0
   -0.7500    1.2990    0.0000 C   0  0  0  0  0  0  0  0  0  0  0  0
   -1.5000    2.5981    0.0000 N   0  0  0  0  0  0  0  0  0  0  0  0
   -2.9918    2.7549    0.0000 C   0  0  0  0  0  0  0  0  0  0  0  0
   -3.3037    4.2221    0.0000 C   0  0  0  0  0  0  0  0  0  0  0  0
   -2.0046    4.9721    0.0000 C   0  0  0  0  0  0  0  0  0  0  0  0
   -0.8899    3.9684    0.0000 C   0  0  0  0  0  0  0  0  0  0  0  0
    0.5773    4.2803    0.0000 C   0  0  0  0  0  0  0  0  0  0  0  0
    1.5810    3.1655    0.0000 C   0  0  0  0  0  0  0  0  0  0  0  0
    3.0482    3.4774    0.0000 C   0  0  0  0  0  0  0  0  0  0  0  0
    4.0519    2.3627    0.0000 F   0  0  0  0  0  0  0  0  0  0  0  0
    3.5118    4.9040    0.0000 C   0  0  0  0  0  0  0  0  0  0  0  0
    2.5081    6.0187    0.0000 C   0  0  0  0  0  0  0  0  0  0  0  0
    1.0409    5.7068    0.0000 C   0  0  0  0  0  0  0  0  0  0  0  0
    0.0372    6.8216    0.0000 F   0  0  0  0  0  0  0  0  0  0  0  0
   -1.5000    0.0000    0.0000 N   0  0  0  0  0  0  0  0  0  0  0  0
   -0.7500   -1.2990    0.0000 C   0  0  0  0  0  0  0  0  0  0  0  0
  1  2  1  0
  2  3  2  0
  2  4  1  0
  4  5  2  0
  4  6  1  0
  6  7  1  0
  7  8  1  0
  8  9  2  0
  9 10  1  0
 10 11  1  0
 11 12  2  0
 12 13  1  0
 13 14  1  0
 14 15  1  0
 15 16  1  0
 16 17  1  0
 17 18  1  0
 18 19  1  6
 19 20  2  0
 20 21  1  0
 21 22  1  0
 21 23  2  0
 23 24  1  0
 24 25  2  0
 25 26  1  0
 13 27  2  0
 27 28  1  0
 28  7  2  0
 28 10  1  0
 18 14  1  0
 25 19  1  0
M  END
>  <Compound_ID>  (110) 
CHEMBL4113444

>  <Molecule Name>  (110) 
nan

>  <Molecular Weight>  (110) 
386.36

>  <AlogP>  (110) 
1.77

>  <Smiles>  (110) 
NC(=O)C(=O)Nc1cnn2ccc(N3CCC[C@@H]3c3cc(F)ccc3F)nc12

>  <Standard Type>  (110) 
IC50

>  <Standard Relation>  (110) 
'='

>  <Standard Units>  (110) 
nM

>  <Standard Value>  (110) 
4.65

>  <Assay ChEMBL ID>  (110) 
CHEMBL3887076

>  <Assay Description>  (110) 
ELISA Assay: An enzyme-linked immunosorbant assay (ELISA) was used to assess TrkA kinase activity in the presence of inhibitors. Immulon 4HBX 384-well microtiter plates (Thermo part #8755) were coated with a 0.025 mg/mL solution of poly (Glu, Ala, Tyr; 6:3:1; Sigma P3899). Various concentrations of test compound, 2.5 nM TrkA (Invitrogen Corp., histidine-tagged recombinant human TrkA, cytoplasmic domain), and 500 uM ATP were incubated for 25 minutes at ambient temperature in the coated plates while shaking. The assay buffer consisted of 25 mM MOPS pH 7.5, 0.005% (v/v) Triton X-100 and 5 mM MgCl2. The reaction mixture was removed from the plate by washing with PBS containing 0.1% (v/v) Tween 20. The phosphorylated reaction product was detected using 0.2 ug/mL of a phosphotyrosine specific monoclonal antibody (clone PY20) conjugated to horseradish peroxidase in conjunction with the TMB Peroxidase Substrate System (KPL).

>  <BAO Format ID>  (110) 
BAO_0000357

>  <BAO Label>  (110) 
single protein format

>  <Assay Organism>  (110) 
None

>  <Target ChEMBL ID>  (110) 
CHEMBL2815

>  <Target Name>  (110) 
Nerve growth factor receptor Trk-A

>  <Target Organism>  (110) 
Homo sapiens

>  <Target Type>  (110) 
SINGLE PROTEIN

>  <Document ChEMBL ID>  (110) 
CHEMBL3886151

>  <Source Description>  (110) 
BindingDB Database

>  <Document Journal>  (110) 
nan

>  <Document Year>  (110) 
2014.0

>  <Active>  (110) 
1.0

>  <bits>  (110) 
<rdkit.DataStructs.cDataStructs.ExplicitBitVect object at 0x00000159F5490C80>

>  <Group>  (110) 
G2

$$$$

     RDKit          2D

 33 36  0  0  0  0  0  0  0  0999 V2000
   -2.9520   -4.6564    0.0000 C   0  0  0  0  0  0  0  0  0  0  0  0
   -2.6401   -3.1891    0.0000 C   0  0  0  0  0  0  0  0  0  0  0  0
   -3.7548   -2.1855    0.0000 C   0  0  0  0  0  0  0  0  0  0  0  0
   -1.2135   -2.7256    0.0000 N   0  0  0  0  0  0  0  0  0  0  0  0
   -0.0000   -3.6073    0.0000 C   0  0  0  0  0  0  0  0  0  0  0  0
    1.2135   -2.7256    0.0000 C   0  0  0  0  0  0  0  0  0  0  0  0
    2.6401   -3.1891    0.0000 C   0  0  0  0  0  0  0  0  0  0  0  0
    3.7548   -2.1855    0.0000 O   0  0  0  0  0  0  0  0  0  0  0  0
    2.9520   -4.6564    0.0000 C   0  0  0  0  0  0  0  0  0  0  0  0
    1.8373   -5.6601    0.0000 C   0  0  0  0  0  0  0  0  0  0  0  0
    2.1491   -7.1273    0.0000 N   0  0  0  0  0  0  0  0  0  0  0  0
    3.5757   -7.5908    0.0000 C   0  0  0  0  0  0  0  0  0  0  0  0
    4.6904   -6.5871    0.0000 C   0  0  0  0  0  0  0  0  0  0  0  0
    6.1170   -7.0506    0.0000 N   0  0  0  0  0  0  0  0  0  0  0  0
    6.4289   -8.5179    0.0000 C   0  0  0  0  0  0  0  0  0  0  0  0
    5.3142   -9.5216    0.0000 O   0  0  0  0  0  0  0  0  0  0  0  0
    7.8555   -8.9814    0.0000 C   0  0  0  0  0  0  0  0  0  0  0  0
    8.9702   -7.9777    0.0000 C   0  0  0  0  0  0  0  0  0  0  0  0
   10.3968   -8.4412    0.0000 O   0  0  0  0  0  0  0  0  0  0  0  0
    8.1673  -10.4486    0.0000 C   0  0  0  0  0  0  0  0  0  0  0  0
    7.0526  -11.4523    0.0000 C   0  0  0  0  0  0  0  0  0  0  0  0
    7.3645  -12.9195    0.0000 C   0  0  0  0  0  0  0  0  0  0  0  0
    8.7911  -13.3831    0.0000 C   0  0  0  0  0  0  0  0  0  0  0  0
    9.1029  -14.8503    0.0000 Cl  0  0  0  0  0  0  0  0  0  0  0  0
    9.9058  -12.3794    0.0000 C   0  0  0  0  0  0  0  0  0  0  0  0
    9.5939  -10.9121    0.0000 C   0  0  0  0  0  0  0  0  0  0  0  0
    4.3786   -5.1199    0.0000 C   0  0  0  0  0  0  0  0  0  0  0  0
    0.7500   -1.2990    0.0000 C   0  0  0  0  0  0  0  0  0  0  0  0
    1.5000    0.0000    0.0000 C   0  0  0  0  0  0  0  0  0  0  0  0
    0.7500    1.2990    0.0000 N   0  0  0  0  0  0  0  0  0  0  0  0
   -0.7500    1.2990    0.0000 C   0  0  0  0  0  0  0  0  0  0  0  0
   -1.5000    0.0000    0.0000 N   0  0  0  0  0  0  0  0  0  0  0  0
   -0.7500   -1.2990    0.0000 C   0  0  0  0  0  0  0  0  0  0  0  0
  1  2  1  0
  2  3  1  0
  2  4  1  0
  4  5  1  0
  5  6  2  0
  6  7  1  0
  7  8  2  0
  7  9  1  0
  9 10  2  0
 10 11  1  0
 11 12  2  0
 12 13  1  0
 13 14  1  0
 14 15  1  0
 15 16  2  0
 15 17  1  0
 17 18  1  0
 18 19  1  0
 17 20  1  0
 20 21  2  0
 21 22  1  0
 22 23  2  0
 23 24  1  0
 23 25  1  0
 25 26  2  0
 13 27  2  0
  6 28  1  0
 28 29  2  0
 29 30  1  0
 30 31  2  0
 31 32  1  0
 32 33  2  0
 33  4  1  0
 27  9  1  0
 33 28  1  0
 26 20  1  0
M  END
>  <Compound_ID>  (111) 
CHEMBL3671399

>  <Molecule Name>  (111) 
nan

>  <Molecular Weight>  (111) 
463.93

>  <AlogP>  (111) 
4.01

>  <Smiles>  (111) 
CC(C)n1cc(C(=O)c2cncc(NC(=O)C(CO)c3ccc(Cl)cc3)c2)c2cncnc21

>  <Standard Type>  (111) 
IC50

>  <Standard Relation>  (111) 
'='

>  <Standard Units>  (111) 
nM

>  <Standard Value>  (111) 
92.7

>  <Assay ChEMBL ID>  (111) 
CHEMBL3887033

>  <Assay Description>  (111) 
Enzyme Assay: Isolated TRK Enzyme assays use the HTRF KinEASE-TK kit (Cisbio Cat# 62TK0PEJ) with recombinant His-tagged cytoplasmic domains of each TRK receptor sourced from Invitrogen (see table below). This activity-assay measures the phosphorylation of tyrosine residues within a substrate from the HTRF kit which has been validated by Cisbio for a variety of tyrosine kinases including the TRK receptors. Assay details: Target:TRKA; Invitrogen Cat# PV3144; Amino acids:aa 441-796; FAC enzyme:4nM; FAC ATP:40uM; Assay Reaction Time:35min.

>  <BAO Format ID>  (111) 
BAO_0000357

>  <BAO Label>  (111) 
single protein format

>  <Assay Organism>  (111) 
None

>  <Target ChEMBL ID>  (111) 
CHEMBL2815

>  <Target Name>  (111) 
Nerve growth factor receptor Trk-A

>  <Target Organism>  (111) 
Homo sapiens

>  <Target Type>  (111) 
SINGLE PROTEIN

>  <Document ChEMBL ID>  (111) 
CHEMBL3639348

>  <Source Description>  (111) 
BindingDB Database

>  <Document Journal>  (111) 
nan

>  <Document Year>  (111) 
2014.0

>  <Active>  (111) 
1.0

>  <bits>  (111) 
<rdkit.DataStructs.cDataStructs.ExplicitBitVect object at 0x00000159F5490BA0>

>  <Group>  (111) 
G2

$$$$

     RDKit          2D

 32 35  0  0  0  0  0  0  0  0999 V2000
   -2.9520   -4.6564    0.0000 C   0  0  0  0  0  0  0  0  0  0  0  0
   -2.6401   -3.1891    0.0000 C   0  0  0  0  0  0  0  0  0  0  0  0
   -3.7548   -2.1855    0.0000 C   0  0  0  0  0  0  0  0  0  0  0  0
   -1.2135   -2.7256    0.0000 N   0  0  0  0  0  0  0  0  0  0  0  0
   -0.0000   -3.6073    0.0000 C   0  0  0  0  0  0  0  0  0  0  0  0
    1.2135   -2.7256    0.0000 C   0  0  0  0  0  0  0  0  0  0  0  0
    2.6401   -3.1891    0.0000 C   0  0  0  0  0  0  0  0  0  0  0  0
    3.7548   -2.1855    0.0000 O   0  0  0  0  0  0  0  0  0  0  0  0
    2.9520   -4.6564    0.0000 C   0  0  0  0  0  0  0  0  0  0  0  0
    1.8373   -5.6601    0.0000 C   0  0  0  0  0  0  0  0  0  0  0  0
    2.1491   -7.1273    0.0000 N   0  0  0  0  0  0  0  0  0  0  0  0
    3.5757   -7.5908    0.0000 C   0  0  0  0  0  0  0  0  0  0  0  0
    4.6904   -6.5871    0.0000 C   0  0  0  0  0  0  0  0  0  0  0  0
    6.1170   -7.0506    0.0000 N   0  0  0  0  0  0  0  0  0  0  0  0
    6.4289   -8.5179    0.0000 C   0  0  0  0  0  0  0  0  0  0  0  0
    5.3142   -9.5216    0.0000 O   0  0  0  0  0  0  0  0  0  0  0  0
    7.8555   -8.9814    0.0000 C   0  0  0  0  0  0  0  0  0  0  0  0
    8.1673  -10.4486    0.0000 C   0  0  0  0  0  0  0  0  0  0  0  0
    7.0526  -11.4523    0.0000 C   0  0  0  0  0  0  0  0  0  0  0  0
    7.3645  -12.9195    0.0000 C   0  0  0  0  0  0  0  0  0  0  0  0
    8.7911  -13.3831    0.0000 C   0  0  0  0  0  0  0  0  0  0  0  0
    9.1029  -14.8503    0.0000 F   0  0  0  0  0  0  0  0  0  0  0  0
    9.9058  -12.3794    0.0000 C   0  0  0  0  0  0  0  0  0  0  0  0
    9.5939  -10.9121    0.0000 N   0  0  0  0  0  0  0  0  0  0  0  0
    4.3786   -5.1199    0.0000 C   0  0  0  0  0  0  0  0  0  0  0  0
    0.7500   -1.2990    0.0000 C   0  0  0  0  0  0  0  0  0  0  0  0
    1.5000    0.0000    0.0000 C   0  0  0  0  0  0  0  0  0  0  0  0
    0.7500    1.2990    0.0000 N   0  0  0  0  0  0  0  0  0  0  0  0
   -0.7500    1.2990    0.0000 C   0  0  0  0  0  0  0  0  0  0  0  0
   -1.5000    2.5981    0.0000 N   0  0  0  0  0  0  0  0  0  0  0  0
   -1.5000    0.0000    0.0000 N   0  0  0  0  0  0  0  0  0  0  0  0
   -0.7500   -1.2990    0.0000 C   0  0  0  0  0  0  0  0  0  0  0  0
  1  2  1  0
  2  3  1  0
  2  4  1  0
  4  5  1  0
  5  6  2  0
  6  7  1  0
  7  8  2  0
  7  9  1  0
  9 10  2  0
 10 11  1  0
 11 12  2  0
 12 13  1  0
 13 14  1  0
 14 15  1  0
 15 16  2  0
 15 17  1  0
 17 18  1  0
 18 19  2  0
 19 20  1  0
 20 21  2  0
 21 22  1  0
 21 23  1  0
 23 24  2  0
 13 25  2  0
  6 26  1  0
 26 27  2  0
 27 28  1  0
 28 29  2  0
 29 30  1  0
 29 31  1  0
 31 32  2  0
 32  4  1  0
 25  9  1  0
 32 26  1  0
 24 18  1  0
M  END
>  <Compound_ID>  (112) 
CHEMBL3666247

>  <Molecule Name>  (112) 
nan

>  <Molecular Weight>  (112) 
433.45

>  <AlogP>  (112) 
2.94

>  <Smiles>  (112) 
CC(C)n1cc(C(=O)c2cncc(NC(=O)Cc3ccc(F)cn3)c2)c2cnc(N)nc21

>  <Standard Type>  (112) 
IC50

>  <Standard Relation>  (112) 
'='

>  <Standard Units>  (112) 
nM

>  <Standard Value>  (112) 
38.4

>  <Assay ChEMBL ID>  (112) 
CHEMBL3887033

>  <Assay Description>  (112) 
Enzyme Assay: Isolated TRK Enzyme assays use the HTRF KinEASE-TK kit (Cisbio Cat# 62TK0PEJ) with recombinant His-tagged cytoplasmic domains of each TRK receptor sourced from Invitrogen (see table below). This activity-assay measures the phosphorylation of tyrosine residues within a substrate from the HTRF kit which has been validated by Cisbio for a variety of tyrosine kinases including the TRK receptors. Assay details: Target:TRKA; Invitrogen Cat# PV3144; Amino acids:aa 441-796; FAC enzyme:4nM; FAC ATP:40uM; Assay Reaction Time:35min.

>  <BAO Format ID>  (112) 
BAO_0000357

>  <BAO Label>  (112) 
single protein format

>  <Assay Organism>  (112) 
None

>  <Target ChEMBL ID>  (112) 
CHEMBL2815

>  <Target Name>  (112) 
Nerve growth factor receptor Trk-A

>  <Target Organism>  (112) 
Homo sapiens

>  <Target Type>  (112) 
SINGLE PROTEIN

>  <Document ChEMBL ID>  (112) 
CHEMBL3639348

>  <Source Description>  (112) 
BindingDB Database

>  <Document Journal>  (112) 
nan

>  <Document Year>  (112) 
2014.0

>  <Active>  (112) 
1.0

>  <bits>  (112) 
<rdkit.DataStructs.cDataStructs.ExplicitBitVect object at 0x00000159F5490B30>

>  <Group>  (112) 
G2

$$$$

     RDKit          2D

 36 40  0  0  0  0  0  0  0  0999 V2000
   -1.8373   -5.6601    0.0000 O   0  0  0  0  0  0  0  0  0  0  0  0
   -2.9520   -4.6564    0.0000 C   0  0  0  0  0  0  0  0  0  0  0  0
   -2.6401   -3.1891    0.0000 N   0  0  0  0  0  0  0  0  0  0  0  0
   -1.2135   -2.7256    0.0000 C   0  0  0  0  0  0  0  0  0  0  0  0
   -0.0000   -3.6073    0.0000 C   0  0  0  0  0  0  0  0  0  0  0  0
    1.2135   -2.7256    0.0000 N   0  0  0  0  0  0  0  0  0  0  0  0
    0.7500   -1.2990    0.0000 C   0  0  0  0  0  0  0  0  0  0  0  0
    1.5000    0.0000    0.0000 C   0  0  0  0  0  0  0  0  0  0  0  0
    0.7500    1.2990    0.0000 C   0  0  0  0  0  0  0  0  0  0  0  0
   -0.7500    1.2990    0.0000 C   0  0  0  0  0  0  0  0  0  0  0  0
   -1.5000    2.5981    0.0000 N   0  0  0  0  0  0  0  0  0  0  0  0
   -2.9918    2.7549    0.0000 C   0  0  0  0  0  0  0  0  0  0  0  0
   -3.3037    4.2221    0.0000 C   0  0  0  0  0  0  0  0  0  0  0  0
   -2.0046    4.9721    0.0000 C   0  0  0  0  0  0  0  0  0  0  0  0
   -0.8899    3.9684    0.0000 C   0  0  0  0  0  0  0  0  0  0  0  0
    0.5773    4.2803    0.0000 C   0  0  0  0  0  0  0  0  0  0  0  0
    1.5810    3.1655    0.0000 C   0  0  0  0  0  0  0  0  0  0  0  0
    3.0482    3.4774    0.0000 C   0  0  0  0  0  0  0  0  0  0  0  0
    4.0519    2.3627    0.0000 F   0  0  0  0  0  0  0  0  0  0  0  0
    3.5118    4.9040    0.0000 C   0  0  0  0  0  0  0  0  0  0  0  0
    2.5081    6.0187    0.0000 C   0  0  0  0  0  0  0  0  0  0  0  0
    1.0409    5.7068    0.0000 C   0  0  0  0  0  0  0  0  0  0  0  0
    0.0372    6.8216    0.0000 F   0  0  0  0  0  0  0  0  0  0  0  0
   -1.5000    0.0000    0.0000 N   0  0  0  0  0  0  0  0  0  0  0  0
   -0.7500   -1.2990    0.0000 N   0  0  0  0  0  0  0  0  0  0  0  0
   -4.3786   -5.1199    0.0000 N   0  0  0  0  0  0  0  0  0  0  0  0
   -5.4933   -4.1162    0.0000 C   0  0  0  0  0  0  0  0  0  0  0  0
   -6.9199   -4.5797    0.0000 C   0  0  0  0  0  0  0  0  0  0  0  0
   -7.2317   -6.0469    0.0000 C   0  0  0  0  0  0  0  0  0  0  0  0
   -8.6225   -5.4850    0.0000 O   0  0  0  0  0  0  0  0  0  0  0  0
   -8.0266   -7.3190    0.0000 C   0  0  0  0  0  0  0  0  0  0  0  0
   -8.8215   -8.5911    0.0000 F   0  0  0  0  0  0  0  0  0  0  0  0
   -9.2987   -6.5241    0.0000 F   0  0  0  0  0  0  0  0  0  0  0  0
   -6.7545   -8.1139    0.0000 F   0  0  0  0  0  0  0  0  0  0  0  0
   -6.1170   -7.0506    0.0000 C   0  0  0  0  0  0  0  0  0  0  0  0
   -4.6904   -6.5871    0.0000 C   0  0  0  0  0  0  0  0  0  0  0  0
  1  2  2  0
  2  3  1  0
  3  4  1  0
  4  5  2  0
  5  6  1  0
  6  7  2  0
  7  8  1  0
  8  9  2  0
  9 10  1  0
 10 11  1  0
 11 12  1  0
 12 13  1  0
 13 14  1  0
 14 15  1  0
 15 16  1  6
 16 17  2  0
 17 18  1  0
 18 19  1  0
 18 20  2  0
 20 21  1  0
 21 22  2  0
 22 23  1  0
 10 24  2  0
 24 25  1  0
  2 26  1  0
 26 27  1  0
 27 28  1  0
 28 29  1  0
 29 30  1  0
 29 31  1  0
 31 32  1  0
 31 33  1  0
 31 34  1  0
 29 35  1  0
 35 36  1  0
 25  4  1  0
 36 26  1  0
 25  7  1  0
 15 11  1  0
 22 16  1  0
M  END
>  <Compound_ID>  (113) 
CHEMBL4111417

>  <Molecule Name>  (113) 
nan

>  <Molecular Weight>  (113) 
510.47

>  <AlogP>  (113) 
4.27

>  <Smiles>  (113) 
O=C(Nc1cnc2ccc(N3CCC[C@@H]3c3cc(F)ccc3F)nn12)N1CCC(O)(C(F)(F)F)CC1

>  <Standard Type>  (113) 
IC50

>  <Standard Relation>  (113) 
'='

>  <Standard Units>  (113) 
nM

>  <Standard Value>  (113) 
16.5

>  <Assay ChEMBL ID>  (113) 
CHEMBL3887826

>  <Assay Description>  (113) 
ELISA Assay: An enzyme-linked immunosorbant assay (ELISA) was used to assess TrkA kinase activity in the presence of inhibitors. Immulon 4HBX 384-well microtiter plates (Thermo part #8755) were coated with a 0.025 mg/mL solution of poly (Glu, Ala, Tyr; 6:3:1; Sigma P3899). Various concentrations of test compound, 2.5 nM TrkA (Invitrogen Corp., histidine-tagged recombinant human TrkA, cytoplasmic domain), and 500 uM ATP were incubated for 25 minutes at ambient temperature in the coated plates while shaking. The assay buffer consisted of 25 mM MOPS pH 7.5, 0.005% (v/v) Triton X-100 and 5 mM MgCl2. The reaction mixture was removed from the plate by washing with PBS containing 0.1% (v/v) Tween 20. The phosphorylated reaction product was detected using 0.2 ug/mL of a phosphotyrosine specific monoclonal antibody (clone PY20) conjugated to horseradish peroxidase in conjunction with the TMB Peroxidase Substrate System (KPL).

>  <BAO Format ID>  (113) 
BAO_0000357

>  <BAO Label>  (113) 
single protein format

>  <Assay Organism>  (113) 
None

>  <Target ChEMBL ID>  (113) 
CHEMBL2815

>  <Target Name>  (113) 
Nerve growth factor receptor Trk-A

>  <Target Organism>  (113) 
Homo sapiens

>  <Target Type>  (113) 
SINGLE PROTEIN

>  <Document ChEMBL ID>  (113) 
CHEMBL3886465

>  <Source Description>  (113) 
BindingDB Database

>  <Document Journal>  (113) 
nan

>  <Document Year>  (113) 
2016.0

>  <Active>  (113) 
1.0

>  <bits>  (113) 
<rdkit.DataStructs.cDataStructs.ExplicitBitVect object at 0x00000159F5490970>

>  <Group>  (113) 
G2

$$$$

     RDKit          2D

 37 40  0  0  0  0  0  0  0  0999 V2000
   -2.9520   -4.6564    0.0000 C   0  0  0  0  0  0  0  0  0  0  0  0
   -2.6401   -3.1891    0.0000 C   0  0  0  0  0  0  0  0  0  0  0  0
   -3.7548   -2.1855    0.0000 C   0  0  0  0  0  0  0  0  0  0  0  0
   -1.2135   -2.7256    0.0000 N   0  0  0  0  0  0  0  0  0  0  0  0
   -0.0000   -3.6073    0.0000 C   0  0  0  0  0  0  0  0  0  0  0  0
    1.2135   -2.7256    0.0000 C   0  0  0  0  0  0  0  0  0  0  0  0
    2.6401   -3.1891    0.0000 C   0  0  0  0  0  0  0  0  0  0  0  0
    3.7548   -2.1855    0.0000 O   0  0  0  0  0  0  0  0  0  0  0  0
    2.9520   -4.6564    0.0000 C   0  0  0  0  0  0  0  0  0  0  0  0
    1.8373   -5.6601    0.0000 C   0  0  0  0  0  0  0  0  0  0  0  0
    2.1491   -7.1273    0.0000 N   0  0  0  0  0  0  0  0  0  0  0  0
    3.5757   -7.5908    0.0000 C   0  0  0  0  0  0  0  0  0  0  0  0
    3.8876   -9.0580    0.0000 O   0  0  0  0  0  0  0  0  0  0  0  0
    4.6904   -6.5871    0.0000 C   0  0  0  0  0  0  0  0  0  0  0  0
    6.1170   -7.0506    0.0000 N   0  0  0  0  0  0  0  0  0  0  0  0
    7.2317   -6.0469    0.0000 C   0  0  0  0  0  0  0  0  0  0  0  0
    6.9199   -4.5797    0.0000 O   0  0  0  0  0  0  0  0  0  0  0  0
    8.6583   -6.5105    0.0000 C   0  0  0  0  0  0  0  0  0  0  0  0
    9.7730   -5.5068    0.0000 O   0  0  0  0  0  0  0  0  0  0  0  0
   11.1996   -5.9703    0.0000 C   0  0  0  0  0  0  0  0  0  0  0  0
   11.5115   -7.4375    0.0000 C   0  0  0  0  0  0  0  0  0  0  0  0
   12.9381   -7.9010    0.0000 C   0  0  0  0  0  0  0  0  0  0  0  0
   14.0528   -6.8974    0.0000 C   0  0  0  0  0  0  0  0  0  0  0  0
   13.7409   -5.4301    0.0000 C   0  0  0  0  0  0  0  0  0  0  0  0
   12.3143   -4.9666    0.0000 C   0  0  0  0  0  0  0  0  0  0  0  0
   12.0025   -3.4994    0.0000 O   0  0  0  0  0  0  0  0  0  0  0  0
   13.1172   -2.4957    0.0000 C   0  0  0  0  0  0  0  0  0  0  0  0
   14.2319   -1.4920    0.0000 F   0  0  0  0  0  0  0  0  0  0  0  0
   12.1135   -1.3810    0.0000 F   0  0  0  0  0  0  0  0  0  0  0  0
   14.1209   -3.6104    0.0000 F   0  0  0  0  0  0  0  0  0  0  0  0
    4.3786   -5.1199    0.0000 C   0  0  0  0  0  0  0  0  0  0  0  0
    0.7500   -1.2990    0.0000 C   0  0  0  0  0  0  0  0  0  0  0  0
    1.5000    0.0000    0.0000 C   0  0  0  0  0  0  0  0  0  0  0  0
    0.7500    1.2990    0.0000 N   0  0  0  0  0  0  0  0  0  0  0  0
   -0.7500    1.2990    0.0000 C   0  0  0  0  0  0  0  0  0  0  0  0
   -1.5000    0.0000    0.0000 N   0  0  0  0  0  0  0  0  0  0  0  0
   -0.7500   -1.2990    0.0000 C   0  0  0  0  0  0  0  0  0  0  0  0
  1  2  1  0
  2  3  1  0
  2  4  1  0
  4  5  1  0
  5  6  2  0
  6  7  1  0
  7  8  2  0
  7  9  1  0
  9 10  2  0
 10 11  1  0
 11 12  1  0
 12 13  2  0
 12 14  1  0
 14 15  1  0
 15 16  1  0
 16 17  2  0
 16 18  1  0
 18 19  1  0
 19 20  1  0
 20 21  2  0
 21 22  1  0
 22 23  2  0
 23 24  1  0
 24 25  2  0
 25 26  1  0
 26 27  1  0
 27 28  1  0
 27 29  1  0
 27 30  1  0
 14 31  2  0
  6 32  1  0
 32 33  2  0
 33 34  1  0
 34 35  2  0
 35 36  1  0
 36 37  2  0
 37  4  1  0
 31  9  1  0
 37 32  1  0
 25 20  1  0
M  END
>  <Compound_ID>  (114) 
CHEMBL3671451

>  <Molecule Name>  (114) 
nan

>  <Molecular Weight>  (114) 
515.45

>  <AlogP>  (114) 
3.85

>  <Smiles>  (114) 
CC(C)n1cc(C(=O)c2c[nH]c(=O)c(NC(=O)COc3ccccc3OC(F)(F)F)c2)c2cncnc21

>  <Standard Type>  (114) 
IC50

>  <Standard Relation>  (114) 
'='

>  <Standard Units>  (114) 
nM

>  <Standard Value>  (114) 
36.7

>  <Assay ChEMBL ID>  (114) 
CHEMBL3887033

>  <Assay Description>  (114) 
Enzyme Assay: Isolated TRK Enzyme assays use the HTRF KinEASE-TK kit (Cisbio Cat# 62TK0PEJ) with recombinant His-tagged cytoplasmic domains of each TRK receptor sourced from Invitrogen (see table below). This activity-assay measures the phosphorylation of tyrosine residues within a substrate from the HTRF kit which has been validated by Cisbio for a variety of tyrosine kinases including the TRK receptors. Assay details: Target:TRKA; Invitrogen Cat# PV3144; Amino acids:aa 441-796; FAC enzyme:4nM; FAC ATP:40uM; Assay Reaction Time:35min.

>  <BAO Format ID>  (114) 
BAO_0000357

>  <BAO Label>  (114) 
single protein format

>  <Assay Organism>  (114) 
None

>  <Target ChEMBL ID>  (114) 
CHEMBL2815

>  <Target Name>  (114) 
Nerve growth factor receptor Trk-A

>  <Target Organism>  (114) 
Homo sapiens

>  <Target Type>  (114) 
SINGLE PROTEIN

>  <Document ChEMBL ID>  (114) 
CHEMBL3639348

>  <Source Description>  (114) 
BindingDB Database

>  <Document Journal>  (114) 
nan

>  <Document Year>  (114) 
2014.0

>  <Active>  (114) 
1.0

>  <bits>  (114) 
<rdkit.DataStructs.cDataStructs.ExplicitBitVect object at 0x00000159F5490890>

>  <Group>  (114) 
G2

$$$$

     RDKit          2D

 35 39  0  0  0  0  0  0  0  0999 V2000
  -10.9341    7.7749    0.0000 C   0  0  0  0  0  0  0  0  0  0  0  0
  -11.2460    6.3076    0.0000 O   0  0  0  0  0  0  0  0  0  0  0  0
  -10.1313    5.3039    0.0000 C   0  0  0  0  0  0  0  0  0  0  0  0
   -8.7047    5.7675    0.0000 C   0  0  0  0  0  0  0  0  0  0  0  0
   -7.5900    4.7638    0.0000 C   0  0  0  0  0  0  0  0  0  0  0  0
   -7.9018    3.2966    0.0000 C   0  0  0  0  0  0  0  0  0  0  0  0
   -6.7871    2.2929    0.0000 C   0  0  0  0  0  0  0  0  0  0  0  0
   -7.0990    0.8256    0.0000 O   0  0  0  0  0  0  0  0  0  0  0  0
   -5.9843   -0.1781    0.0000 C   0  0  0  0  0  0  0  0  0  0  0  0
   -6.2961   -1.6453    0.0000 C   0  0  0  0  0  0  0  0  0  0  0  0
   -5.1814   -2.6490    0.0000 C   0  0  0  0  0  0  0  0  0  0  0  0
   -3.7548   -2.1855    0.0000 C   0  0  0  0  0  0  0  0  0  0  0  0
   -2.6401   -3.1891    0.0000 C   0  0  0  0  0  0  0  0  0  0  0  0
   -1.2135   -2.7256    0.0000 N   0  0  0  0  0  0  0  0  0  0  0  0
   -0.0000   -3.6073    0.0000 C   0  0  0  0  0  0  0  0  0  0  0  0
    0.0000   -5.1073    0.0000 N   0  0  0  0  0  0  0  0  0  0  0  0
    1.2135   -2.7256    0.0000 N   0  0  0  0  0  0  0  0  0  0  0  0
    0.7500   -1.2990    0.0000 C   0  0  0  0  0  0  0  0  0  0  0  0
    1.5000    0.0000    0.0000 C   0  0  0  0  0  0  0  0  0  0  0  0
    0.7500    1.2990    0.0000 C   0  0  0  0  0  0  0  0  0  0  0  0
    1.5000    2.5981    0.0000 C   0  0  0  0  0  0  0  0  0  0  0  0
    0.8899    3.9684    0.0000 C   0  0  0  0  0  0  0  0  0  0  0  0
    2.0046    4.9721    0.0000 N   0  0  0  0  0  0  0  0  0  0  0  0
    3.3037    4.2221    0.0000 N   0  0  0  0  0  0  0  0  0  0  0  0
    4.6740    4.8322    0.0000 C   0  0  0  0  0  0  0  0  0  0  0  0
    2.9918    2.7549    0.0000 C   0  0  0  0  0  0  0  0  0  0  0  0
   -0.7500    1.2990    0.0000 C   0  0  0  0  0  0  0  0  0  0  0  0
   -1.5000    0.0000    0.0000 N   0  0  0  0  0  0  0  0  0  0  0  0
   -0.7500   -1.2990    0.0000 C   0  0  0  0  0  0  0  0  0  0  0  0
   -3.4430   -0.7182    0.0000 C   0  0  0  0  0  0  0  0  0  0  0  0
   -4.5577    0.2855    0.0000 C   0  0  0  0  0  0  0  0  0  0  0  0
   -4.2458    1.7527    0.0000 O   0  0  0  0  0  0  0  0  0  0  0  0
   -5.3605    2.7564    0.0000 C   0  0  0  0  0  0  0  0  0  0  0  0
   -9.3284    2.8330    0.0000 C   0  0  0  0  0  0  0  0  0  0  0  0
  -10.4431    3.8367    0.0000 C   0  0  0  0  0  0  0  0  0  0  0  0
  1  2  1  0
  2  3  1  0
  3  4  2  0
  4  5  1  0
  5  6  2  0
  6  7  1  0
  7  8  1  0
  8  9  1  0
  9 10  2  0
 10 11  1  0
 11 12  2  0
 12 13  1  0
 13 14  1  0
 14 15  1  0
 15 16  1  0
 15 17  2  0
 17 18  1  0
 18 19  2  0
 19 20  1  0
 20 21  1  0
 21 22  1  0
 22 23  2  0
 23 24  1  0
 24 25  1  0
 24 26  1  0
 20 27  2  0
 27 28  1  0
 28 29  2  0
 12 30  1  0
 30 31  2  0
 31 32  1  0
 32 33  1  0
  6 34  1  0
 34 35  2  0
 35  3  1  0
 31  9  1  0
 29 14  1  0
 29 18  1  0
 26 21  2  0
M  END
>  <Compound_ID>  (115) 
CHEMBL3673452

>  <Molecule Name>  (115) 
GZ-389988

>  <Molecular Weight>  (115) 
470.53

>  <AlogP>  (115) 
4.06

>  <Smiles>  (115) 
COc1ccc(COc2ccc(Cn3c(N)nc4cc(-c5cnn(C)c5)cnc43)cc2OC)cc1

>  <Standard Type>  (115) 
IC50

>  <Standard Relation>  (115) 
'='

>  <Standard Units>  (115) 
nM

>  <Standard Value>  (115) 
0.3

>  <Assay ChEMBL ID>  (115) 
CHEMBL3887112

>  <Assay Description>  (115) 
Inhibition Assay: Reagents and consumables were purchased from Sigma Aldrich, Carna Biosciences, or Caliper Life Sciences. All assay reaction conditions for IC50 determinations were within the linear range with respect to time and enzyme concentration. In a 384 well polypropylene plate, TrkA (0.4 nM, Carna 08-186) was pre-incubated in a 100 mM Hepes-NaOH pH 7.5 buffer containing 0.01% Triton X-100, 10 mM MgCl2, 0.1% BSA, 1 mM DTT, 10 uM sodium orthovanadate and 10 uM beta-glycerophosphate and compound with a concentration of 2.5% DMSO for 15 minutes at room temperature. The reaction was initiated with an equal volume of peptide substrate (Caliper Life Sciences catalog no. 760430) and ATP in the aforementioned buffer. The final concentrations in the reaction were 200 pM TrkA, 1.5 uM peptide substrate and 55 uM ATP (ATP Km). The reaction was incubated at room temperature for 180 minutes and terminated with a buffer containing excess EDTA (100 mM Hepes-NaOH pH 7.5, 0.02% Brij.

>  <BAO Format ID>  (115) 
BAO_0000357

>  <BAO Label>  (115) 
single protein format

>  <Assay Organism>  (115) 
None

>  <Target ChEMBL ID>  (115) 
CHEMBL2815

>  <Target Name>  (115) 
Nerve growth factor receptor Trk-A

>  <Target Organism>  (115) 
Homo sapiens

>  <Target Type>  (115) 
SINGLE PROTEIN

>  <Document ChEMBL ID>  (115) 
CHEMBL3638818

>  <Source Description>  (115) 
BindingDB Database

>  <Document Journal>  (115) 
nan

>  <Document Year>  (115) 
2015.0

>  <Active>  (115) 
1.0

>  <bits>  (115) 
<rdkit.DataStructs.cDataStructs.ExplicitBitVect object at 0x00000159F54907B0>

>  <Group>  (115) 
G2

$$$$

     RDKit          2D

 35 39  0  0  0  0  0  0  0  0999 V2000
   -0.0000   -5.1073    0.0000 C   0  0  0  0  0  0  0  0  0  0  0  0
   -0.0000   -3.6073    0.0000 C   0  0  0  0  0  0  0  0  0  0  0  0
    1.2135   -2.7256    0.0000 N   0  0  0  0  0  0  0  0  0  0  0  0
    0.7500   -1.2990    0.0000 C   0  0  0  0  0  0  0  0  0  0  0  0
    1.5000    0.0000    0.0000 C   0  0  0  0  0  0  0  0  0  0  0  0
    3.0000    0.0000    0.0000 F   0  0  0  0  0  0  0  0  0  0  0  0
    0.7500    1.2990    0.0000 C   0  0  0  0  0  0  0  0  0  0  0  0
   -0.7500    1.2990    0.0000 C   0  0  0  0  0  0  0  0  0  0  0  0
   -1.5000    0.0000    0.0000 C   0  0  0  0  0  0  0  0  0  0  0  0
   -0.7500   -1.2990    0.0000 C   0  0  0  0  0  0  0  0  0  0  0  0
   -1.2135   -2.7256    0.0000 C   0  0  0  0  0  0  0  0  0  0  0  0
   -2.6401   -3.1891    0.0000 C   0  0  0  0  0  0  0  0  0  0  0  0
   -2.9520   -4.6564    0.0000 C   0  0  0  0  0  0  0  0  0  0  0  0
   -1.8373   -5.6601    0.0000 O   0  0  0  0  0  0  0  0  0  0  0  0
   -4.3786   -5.1199    0.0000 N   0  0  0  0  0  0  0  0  0  0  0  0
   -4.6904   -6.5871    0.0000 C   0  0  0  0  0  0  0  0  0  0  0  0
   -6.1170   -7.0506    0.0000 C   0  0  0  0  0  0  0  0  0  0  0  0
   -6.4289   -8.5179    0.0000 N   0  0  0  0  0  0  0  0  0  0  0  0
   -5.3142   -9.5216    0.0000 C   0  0  0  0  0  0  0  0  0  0  0  0
   -3.8876   -9.0580    0.0000 C   0  0  0  0  0  0  0  0  0  0  0  0
   -2.7729  -10.0617    0.0000 C   0  0  0  0  0  0  0  0  0  0  0  0
   -1.3463   -9.5982    0.0000 O   0  0  0  0  0  0  0  0  0  0  0  0
   -3.0847  -11.5290    0.0000 C   0  0  0  0  0  0  0  0  0  0  0  0
   -4.4550  -12.1391    0.0000 C   0  0  0  0  0  0  0  0  0  0  0  0
   -4.2983  -13.6308    0.0000 N   0  0  0  0  0  0  0  0  0  0  0  0
   -5.4130  -14.6345    0.0000 C   0  0  0  0  0  0  0  0  0  0  0  0
   -6.8396  -14.1710    0.0000 C   0  0  0  0  0  0  0  0  0  0  0  0
   -5.1011  -16.1018    0.0000 C   0  0  0  0  0  0  0  0  0  0  0  0
   -2.8310  -13.9427    0.0000 C   0  0  0  0  0  0  0  0  0  0  0  0
   -2.0810  -15.2417    0.0000 N   0  0  0  0  0  0  0  0  0  0  0  0
   -0.5810  -15.2417    0.0000 C   0  0  0  0  0  0  0  0  0  0  0  0
    0.1690  -13.9427    0.0000 N   0  0  0  0  0  0  0  0  0  0  0  0
   -0.5810  -12.6437    0.0000 C   0  0  0  0  0  0  0  0  0  0  0  0
   -2.0810  -12.6437    0.0000 C   0  0  0  0  0  0  0  0  0  0  0  0
   -3.5757   -7.5908    0.0000 C   0  0  0  0  0  0  0  0  0  0  0  0
  1  2  1  0
  2  3  1  0
  3  4  1  0
  4  5  2  0
  5  6  1  0
  5  7  1  0
  7  8  2  0
  8  9  1  0
  9 10  2  0
 10 11  1  0
 11 12  1  0
 12 13  1  0
 13 14  2  0
 13 15  1  0
 15 16  1  0
 16 17  2  0
 17 18  1  0
 18 19  2  0
 19 20  1  0
 20 21  1  0
 21 22  2  0
 21 23  1  0
 23 24  2  0
 24 25  1  0
 25 26  1  0
 26 27  1  0
 26 28  1  0
 25 29  1  0
 29 30  2  0
 30 31  1  0
 31 32  2  0
 32 33  1  0
 33 34  2  0
 20 35  2  0
 11  2  2  0
 35 16  1  0
 10  4  1  0
 34 23  1  0
 34 29  1  0
M  END
>  <Compound_ID>  (116) 
CHEMBL3661503

>  <Molecule Name>  (116) 
nan

>  <Molecular Weight>  (116) 
470.51

>  <AlogP>  (116) 
4.75

>  <Smiles>  (116) 
Cc1[nH]c2c(F)cccc2c1CC(=O)Nc1cncc(C(=O)c2cn(C(C)C)c3ncncc23)c1

>  <Standard Type>  (116) 
IC50

>  <Standard Relation>  (116) 
'='

>  <Standard Units>  (116) 
nM

>  <Standard Value>  (116) 
65.1

>  <Assay ChEMBL ID>  (116) 
CHEMBL3887033

>  <Assay Description>  (116) 
Enzyme Assay: Isolated TRK Enzyme assays use the HTRF KinEASE-TK kit (Cisbio Cat# 62TK0PEJ) with recombinant His-tagged cytoplasmic domains of each TRK receptor sourced from Invitrogen (see table below). This activity-assay measures the phosphorylation of tyrosine residues within a substrate from the HTRF kit which has been validated by Cisbio for a variety of tyrosine kinases including the TRK receptors. Assay details: Target:TRKA; Invitrogen Cat# PV3144; Amino acids:aa 441-796; FAC enzyme:4nM; FAC ATP:40uM; Assay Reaction Time:35min.

>  <BAO Format ID>  (116) 
BAO_0000357

>  <BAO Label>  (116) 
single protein format

>  <Assay Organism>  (116) 
None

>  <Target ChEMBL ID>  (116) 
CHEMBL2815

>  <Target Name>  (116) 
Nerve growth factor receptor Trk-A

>  <Target Organism>  (116) 
Homo sapiens

>  <Target Type>  (116) 
SINGLE PROTEIN

>  <Document ChEMBL ID>  (116) 
CHEMBL3639348

>  <Source Description>  (116) 
BindingDB Database

>  <Document Journal>  (116) 
nan

>  <Document Year>  (116) 
2014.0

>  <Active>  (116) 
1.0

>  <bits>  (116) 
<rdkit.DataStructs.cDataStructs.ExplicitBitVect object at 0x00000159F5490580>

>  <Group>  (116) 
G2

$$$$

     RDKit          2D

 36 40  0  0  0  0  0  0  0  0999 V2000
    7.3934   -3.6905    0.0000 C   0  0  0  0  0  0  0  0  0  0  0  0
    5.9262   -3.3786    0.0000 O   0  0  0  0  0  0  0  0  0  0  0  0
    5.4627   -1.9520    0.0000 C   0  0  0  0  0  0  0  0  0  0  0  0
    6.4664   -0.8373    0.0000 N   0  0  0  0  0  0  0  0  0  0  0  0
    6.0029    0.5893    0.0000 C   0  0  0  0  0  0  0  0  0  0  0  0
    4.5356    0.9012    0.0000 C   0  0  0  0  0  0  0  0  0  0  0  0
    4.0721    2.3277    0.0000 F   0  0  0  0  0  0  0  0  0  0  0  0
    3.5320   -0.2136    0.0000 C   0  0  0  0  0  0  0  0  0  0  0  0
    3.9955   -1.6402    0.0000 C   0  0  0  0  0  0  0  0  0  0  0  0
    2.9918   -2.7549    0.0000 C   0  0  0  0  0  0  0  0  0  0  0  0
    3.3037   -4.2221    0.0000 C   0  0  0  0  0  0  0  0  0  0  0  0
    2.0046   -4.9721    0.0000 C   0  0  0  0  0  0  0  0  0  0  0  0
    0.8899   -3.9684    0.0000 C   0  0  0  0  0  0  0  0  0  0  0  0
    1.5000   -2.5981    0.0000 N   0  0  0  0  0  0  0  0  0  0  0  0
    0.7500   -1.2990    0.0000 C   0  0  0  0  0  0  0  0  0  0  0  0
    1.5000    0.0000    0.0000 C   0  0  0  0  0  0  0  0  0  0  0  0
    0.7500    1.2990    0.0000 C   0  0  0  0  0  0  0  0  0  0  0  0
   -0.7500    1.2990    0.0000 N   0  0  0  0  0  0  0  0  0  0  0  0
   -1.7537    2.4138    0.0000 N   0  0  0  0  0  0  0  0  0  0  0  0
   -3.1240    1.8037    0.0000 C   0  0  0  0  0  0  0  0  0  0  0  0
   -2.9672    0.3119    0.0000 C   0  0  0  0  0  0  0  0  0  0  0  0
   -4.0819   -0.6918    0.0000 C   0  0  0  0  0  0  0  0  0  0  0  0
   -3.7701   -2.1590    0.0000 O   0  0  0  0  0  0  0  0  0  0  0  0
   -5.5085   -0.2283    0.0000 N   0  0  0  0  0  0  0  0  0  0  0  0
   -6.6232   -1.2320    0.0000 C   0  0  0  0  0  0  0  0  0  0  0  0
   -8.0498   -0.7685    0.0000 C   0  0  0  0  0  0  0  0  0  0  0  0
   -9.1645   -1.7722    0.0000 C   0  0  0  0  0  0  0  0  0  0  0  0
   -8.8527   -3.2394    0.0000 N   0  0  0  0  0  0  0  0  0  0  0  0
   -9.9674   -4.2431    0.0000 S   0  0  0  0  0  0  0  0  0  0  0  0
  -11.0821   -5.2468    0.0000 C   0  0  0  0  0  0  0  0  0  0  0  0
   -8.9637   -5.3578    0.0000 O   0  0  0  0  0  0  0  0  0  0  0  0
  -10.9711   -3.1284    0.0000 O   0  0  0  0  0  0  0  0  0  0  0  0
   -7.4261   -3.7029    0.0000 C   0  0  0  0  0  0  0  0  0  0  0  0
   -6.3114   -2.6992    0.0000 C   0  0  0  0  0  0  0  0  0  0  0  0
   -1.5000    0.0000    0.0000 C   0  0  0  0  0  0  0  0  0  0  0  0
   -0.7500   -1.2990    0.0000 N   0  0  0  0  0  0  0  0  0  0  0  0
  1  2  1  0
  2  3  1  0
  3  4  2  0
  4  5  1  0
  5  6  2  0
  6  7  1  0
  6  8  1  0
  8  9  2  0
 10  9  1  1
 10 11  1  0
 11 12  1  0
 12 13  1  0
 13 14  1  0
 14 15  1  0
 15 16  1  0
 16 17  2  0
 17 18  1  0
 18 19  1  0
 19 20  2  0
 20 21  1  0
 21 22  1  0
 22 23  2  0
 22 24  1  0
 24 25  1  0
 25 26  1  0
 26 27  1  0
 27 28  1  0
 28 29  1  0
 29 30  1  0
 29 31  2  0
 29 32  2  0
 28 33  1  0
 33 34  1  0
 21 35  2  0
 35 36  1  0
  9  3  1  0
 14 10  1  0
 36 15  2  0
 35 18  1  0
 34 25  1  0
M  END
>  <Compound_ID>  (117) 
CHEMBL3676033

>  <Molecule Name>  (117) 
nan

>  <Molecular Weight>  (117) 
517.59

>  <AlogP>  (117) 
1.77

>  <Smiles>  (117) 
COc1ncc(F)cc1[C@H]1CCCN1c1ccn2ncc(C(=O)NC3CCN(S(C)(=O)=O)CC3)c2n1

>  <Standard Type>  (117) 
IC50

>  <Standard Relation>  (117) 
'='

>  <Standard Units>  (117) 
nM

>  <Standard Value>  (117) 
2.2

>  <Assay ChEMBL ID>  (117) 
CHEMBL3887070

>  <Assay Description>  (117) 
ELISA Assay: An enzyme-linked immunosorbant assay (ELISA) was used to assess TrkA kinase activity in the presence of inhibitors. Immulon 4HBX 384-well microtiter plates (Thermo part #8755) were coated with a 0.025 mg/mL solution of poly (Glu, Ala, Tyr; 6:3:1; Sigma P3899). Various concentrations of test compound, 2.5 nM TrkA (Invitrogen Corp., histidine-tagged recombinant human TrkA, cytoplasmic domain), and 500 uM ATP were incubated for 25 minutes at ambient temperature in the coated plates while shaking The assay buffer consisted of 25 mM MOPS pH 7.5, 0.005% (v/v) Triton X-100 and 5 mM MgCl2. The reaction mixture was removed from the plate by washing with PBS containing 0.1% (v/v) Tween 20. The phosphorylated reaction product was detected using 0.2 ug/mL of a phosphotyrosine specific monoclonal antibody (clone PY20) conjugated to horseradish peroxidase in conjunction with the TMB Peroxidase Substrate System (KPL).

>  <BAO Format ID>  (117) 
BAO_0000357

>  <BAO Label>  (117) 
single protein format

>  <Assay Organism>  (117) 
None

>  <Target ChEMBL ID>  (117) 
CHEMBL2815

>  <Target Name>  (117) 
Nerve growth factor receptor Trk-A

>  <Target Organism>  (117) 
Homo sapiens

>  <Target Type>  (117) 
SINGLE PROTEIN

>  <Document ChEMBL ID>  (117) 
CHEMBL3638907

>  <Source Description>  (117) 
BindingDB Database

>  <Document Journal>  (117) 
nan

>  <Document Year>  (117) 
2014.0

>  <Active>  (117) 
1.0

>  <bits>  (117) 
<rdkit.DataStructs.cDataStructs.ExplicitBitVect object at 0x00000159F5492B90>

>  <Group>  (117) 
G2

$$$$

     RDKit          2D

 32 35  0  0  0  0  0  0  0  0999 V2000
   -2.9520   -4.6564    0.0000 C   0  0  0  0  0  0  0  0  0  0  0  0
   -2.6401   -3.1891    0.0000 C   0  0  0  0  0  0  0  0  0  0  0  0
   -3.7548   -2.1855    0.0000 C   0  0  0  0  0  0  0  0  0  0  0  0
   -1.2135   -2.7256    0.0000 N   0  0  0  0  0  0  0  0  0  0  0  0
   -0.0000   -3.6073    0.0000 C   0  0  0  0  0  0  0  0  0  0  0  0
    1.2135   -2.7256    0.0000 C   0  0  0  0  0  0  0  0  0  0  0  0
    2.6401   -3.1891    0.0000 C   0  0  0  0  0  0  0  0  0  0  0  0
    3.7548   -2.1855    0.0000 O   0  0  0  0  0  0  0  0  0  0  0  0
    2.9520   -4.6564    0.0000 C   0  0  0  0  0  0  0  0  0  0  0  0
    1.8373   -5.6601    0.0000 C   0  0  0  0  0  0  0  0  0  0  0  0
    2.1491   -7.1273    0.0000 N   0  0  0  0  0  0  0  0  0  0  0  0
    3.5757   -7.5908    0.0000 C   0  0  0  0  0  0  0  0  0  0  0  0
    4.6904   -6.5871    0.0000 C   0  0  0  0  0  0  0  0  0  0  0  0
    6.1170   -7.0506    0.0000 N   0  0  0  0  0  0  0  0  0  0  0  0
    6.4289   -8.5179    0.0000 C   0  0  0  0  0  0  0  0  0  0  0  0
    5.3142   -9.5216    0.0000 O   0  0  0  0  0  0  0  0  0  0  0  0
    7.8555   -8.9814    0.0000 C   0  0  0  0  0  0  0  0  0  0  0  0
    8.1673  -10.4486    0.0000 C   0  0  0  0  0  0  0  0  0  0  0  0
    7.0526  -11.4523    0.0000 C   0  0  0  0  0  0  0  0  0  0  0  0
    7.3645  -12.9195    0.0000 C   0  0  0  0  0  0  0  0  0  0  0  0
    8.7911  -13.3831    0.0000 C   0  0  0  0  0  0  0  0  0  0  0  0
    9.1029  -14.8503    0.0000 F   0  0  0  0  0  0  0  0  0  0  0  0
    9.9058  -12.3794    0.0000 C   0  0  0  0  0  0  0  0  0  0  0  0
    9.5939  -10.9121    0.0000 N   0  0  0  0  0  0  0  0  0  0  0  0
    4.3786   -5.1199    0.0000 C   0  0  0  0  0  0  0  0  0  0  0  0
    0.7500   -1.2990    0.0000 C   0  0  0  0  0  0  0  0  0  0  0  0
    1.5000    0.0000    0.0000 C   0  0  0  0  0  0  0  0  0  0  0  0
    0.7500    1.2990    0.0000 N   0  0  0  0  0  0  0  0  0  0  0  0
   -0.7500    1.2990    0.0000 C   0  0  0  0  0  0  0  0  0  0  0  0
   -1.5000    0.0000    0.0000 C   0  0  0  0  0  0  0  0  0  0  0  0
   -3.0000    0.0000    0.0000 F   0  0  0  0  0  0  0  0  0  0  0  0
   -0.7500   -1.2990    0.0000 C   0  0  0  0  0  0  0  0  0  0  0  0
  1  2  1  0
  2  3  1  0
  2  4  1  0
  4  5  1  0
  5  6  2  0
  6  7  1  0
  7  8  2  0
  7  9  1  0
  9 10  2  0
 10 11  1  0
 11 12  2  0
 12 13  1  0
 13 14  1  0
 14 15  1  0
 15 16  2  0
 15 17  1  0
 17 18  1  0
 18 19  2  0
 19 20  1  0
 20 21  2  0
 21 22  1  0
 21 23  1  0
 23 24  2  0
 13 25  2  0
  6 26  1  0
 26 27  2  0
 27 28  1  0
 28 29  2  0
 29 30  1  0
 30 31  1  0
 30 32  2  0
 32  4  1  0
 25  9  1  0
 32 26  1  0
 24 18  1  0
M  END
>  <Compound_ID>  (118) 
CHEMBL3893107

>  <Molecule Name>  (118) 
nan

>  <Molecular Weight>  (118) 
435.43

>  <AlogP>  (118) 
4.1

>  <Smiles>  (118) 
CC(C)n1cc(C(=O)c2cncc(NC(=O)Cc3ccc(F)cn3)c2)c2cncc(F)c21

>  <Standard Type>  (118) 
IC50

>  <Standard Relation>  (118) 
'='

>  <Standard Units>  (118) 
nM

>  <Standard Value>  (118) 
68.4

>  <Assay ChEMBL ID>  (118) 
CHEMBL3887111

>  <Assay Description>  (118) 
HTRF Assay: Isolated TRK Enzyme assays use the HTRF KinEASE-TK kit (Cisbio Cat#62TK0PEJ) with recombinant His-tagged cytoplasmic domains of each TRK receptor sourced from Invitrogen (see table below). This activity-assay measures the phosphorylation of tyrosine residues within a substrate from the HTRF kit which has been validated by Cisbio for a variety of tyrosine kinases including the TRK receptors.Assay Details: Invitrogen Amino FAC FAC Assay ReactionTarget Cat# acids enzyme ATP TimeTRKA PV3144 aa 441-4 nM 40 uM 35 min (NTRK1) 796 TRKB PV3616 aa 526-1 nM 1.4 uM 40 min (NTRK2) 838 TRKC PV3617 aa 510- 10 nM 15 uM 30 min (NTRK3) 8250.5 mM stock solutions of test compounds are prepared and serially diluted in 100% DMSO. A standard curve using the compound of Example 135 disclosed in WO2005/116035 of 150 uM is also prepared on each test plate. High percentage effect (HPE) is defined by 150 uM.

>  <BAO Format ID>  (118) 
BAO_0000357

>  <BAO Label>  (118) 
single protein format

>  <Assay Organism>  (118) 
None

>  <Target ChEMBL ID>  (118) 
CHEMBL2815

>  <Target Name>  (118) 
Nerve growth factor receptor Trk-A

>  <Target Organism>  (118) 
Homo sapiens

>  <Target Type>  (118) 
SINGLE PROTEIN

>  <Document ChEMBL ID>  (118) 
CHEMBL3886170

>  <Source Description>  (118) 
BindingDB Database

>  <Document Journal>  (118) 
nan

>  <Document Year>  (118) 
2015.0

>  <Active>  (118) 
1.0

>  <bits>  (118) 
<rdkit.DataStructs.cDataStructs.ExplicitBitVect object at 0x00000159F5490510>

>  <Group>  (118) 
G2

$$$$

     RDKit          2D

 36 40  0  0  0  0  0  0  0  0999 V2000
   -4.1692    1.1278    0.0000 C   0  0  0  0  0  0  0  0  0  0  0  0
   -4.3260   -0.3640    0.0000 C   0  0  0  0  0  0  0  0  0  0  0  0
   -3.1125   -1.2456    0.0000 C   0  0  0  0  0  0  0  0  0  0  0  0
   -3.2693   -2.7374    0.0000 O   0  0  0  0  0  0  0  0  0  0  0  0
   -5.6963   -0.9741    0.0000 N   0  0  0  0  0  0  0  0  0  0  0  0
   -6.0082   -2.4413    0.0000 C   0  0  0  0  0  0  0  0  0  0  0  0
   -7.5000   -2.5981    0.0000 C   0  0  0  0  0  0  0  0  0  0  0  0
   -8.2500   -3.8971    0.0000 C   0  0  0  0  0  0  0  0  0  0  0  0
   -9.7500   -3.8971    0.0000 O   0  0  0  0  0  0  0  0  0  0  0  0
   -7.5000   -5.1962    0.0000 C   0  0  0  0  0  0  0  0  0  0  0  0
   -8.2500   -6.4952    0.0000 C   0  0  0  0  0  0  0  0  0  0  0  0
   -7.5000   -7.7942    0.0000 N   0  0  0  0  0  0  0  0  0  0  0  0
   -6.0000   -7.7942    0.0000 C   0  0  0  0  0  0  0  0  0  0  0  0
   -5.2500   -6.4952    0.0000 C   0  0  0  0  0  0  0  0  0  0  0  0
   -3.7500   -6.4952    0.0000 N   0  0  0  0  0  0  0  0  0  0  0  0
   -3.0000   -5.1962    0.0000 C   0  0  0  0  0  0  0  0  0  0  0  0
   -3.7500   -3.8971    0.0000 O   0  0  0  0  0  0  0  0  0  0  0  0
   -1.5000   -5.1962    0.0000 C   0  0  0  0  0  0  0  0  0  0  0  0
   -0.7500   -3.8971    0.0000 C   0  0  0  0  0  0  0  0  0  0  0  0
    0.7500   -3.8971    0.0000 C   0  0  0  0  0  0  0  0  0  0  0  0
    1.5000   -2.5981    0.0000 C   0  0  0  0  0  0  0  0  0  0  0  0
    0.7500   -1.2990    0.0000 C   0  0  0  0  0  0  0  0  0  0  0  0
    1.5000    0.0000    0.0000 C   0  0  0  0  0  0  0  0  0  0  0  0
    0.7500    1.2990    0.0000 C   0  0  0  0  0  0  0  0  0  0  0  0
   -0.7500    1.2990    0.0000 C   0  0  0  0  0  0  0  0  0  0  0  0
   -1.5000    0.0000    0.0000 N   0  0  0  0  0  0  0  0  0  0  0  0
   -0.7500   -1.2990    0.0000 C   0  0  0  0  0  0  0  0  0  0  0  0
   -1.5000   -2.5981    0.0000 C   0  0  0  0  0  0  0  0  0  0  0  0
   -6.0000   -5.1962    0.0000 C   0  0  0  0  0  0  0  0  0  0  0  0
   -8.1101   -1.2278    0.0000 C   0  0  0  0  0  0  0  0  0  0  0  0
   -9.5367   -0.7642    0.0000 C   0  0  0  0  0  0  0  0  0  0  0  0
   -9.8486    0.7030    0.0000 N   0  0  0  0  0  0  0  0  0  0  0  0
   -8.7338    1.7067    0.0000 C   0  0  0  0  0  0  0  0  0  0  0  0
   -9.0457    3.1739    0.0000 N   0  0  0  0  0  0  0  0  0  0  0  0
   -7.3073    1.2432    0.0000 N   0  0  0  0  0  0  0  0  0  0  0  0
   -6.9954   -0.2241    0.0000 C   0  0  0  0  0  0  0  0  0  0  0  0
  1  2  1  0
  2  3  1  0
  3  4  1  0
  2  5  1  0
  5  6  1  0
  6  7  2  0
  7  8  1  0
  8  9  2  0
  8 10  1  0
 10 11  2  0
 11 12  1  0
 12 13  2  0
 13 14  1  0
 14 15  1  0
 15 16  1  0
 16 17  2  0
 16 18  1  0
 18 19  1  0
 19 20  2  0
 20 21  1  0
 21 22  2  0
 22 23  1  0
 23 24  2  0
 24 25  1  0
 25 26  2  0
 26 27  1  0
 27 28  2  0
 14 29  2  0
  7 30  1  0
 30 31  2  0
 31 32  1  0
 32 33  2  0
 33 34  1  0
 33 35  1  0
 35 36  2  0
 36  5  1  0
 29 10  1  0
 36 30  1  0
 28 19  1  0
 27 22  1  0
M  END
>  <Compound_ID>  (119) 
CHEMBL3661604

>  <Molecule Name>  (119) 
nan

>  <Molecular Weight>  (119) 
481.52

>  <AlogP>  (119) 
2.92

>  <Smiles>  (119) 
CC(CO)n1cc(C(=O)c2cncc(NC(=O)Cc3ccc4cccnc4c3)c2)c2cnc(N)nc21

>  <Standard Type>  (119) 
IC50

>  <Standard Relation>  (119) 
'='

>  <Standard Units>  (119) 
nM

>  <Standard Value>  (119) 
34.9

>  <Assay ChEMBL ID>  (119) 
CHEMBL3887033

>  <Assay Description>  (119) 
Enzyme Assay: Isolated TRK Enzyme assays use the HTRF KinEASE-TK kit (Cisbio Cat# 62TK0PEJ) with recombinant His-tagged cytoplasmic domains of each TRK receptor sourced from Invitrogen (see table below). This activity-assay measures the phosphorylation of tyrosine residues within a substrate from the HTRF kit which has been validated by Cisbio for a variety of tyrosine kinases including the TRK receptors. Assay details: Target:TRKA; Invitrogen Cat# PV3144; Amino acids:aa 441-796; FAC enzyme:4nM; FAC ATP:40uM; Assay Reaction Time:35min.

>  <BAO Format ID>  (119) 
BAO_0000357

>  <BAO Label>  (119) 
single protein format

>  <Assay Organism>  (119) 
None

>  <Target ChEMBL ID>  (119) 
CHEMBL2815

>  <Target Name>  (119) 
Nerve growth factor receptor Trk-A

>  <Target Organism>  (119) 
Homo sapiens

>  <Target Type>  (119) 
SINGLE PROTEIN

>  <Document ChEMBL ID>  (119) 
CHEMBL3639348

>  <Source Description>  (119) 
BindingDB Database

>  <Document Journal>  (119) 
nan

>  <Document Year>  (119) 
2014.0

>  <Active>  (119) 
1.0

>  <bits>  (119) 
<rdkit.DataStructs.cDataStructs.ExplicitBitVect object at 0x00000159F5490430>

>  <Group>  (119) 
G2

$$$$

     RDKit          2D

 33 36  0  0  0  0  0  0  0  0999 V2000
   -2.9520   -4.6564    0.0000 C   0  0  0  0  0  0  0  0  0  0  0  0
   -2.6401   -3.1891    0.0000 C   0  0  0  0  0  0  0  0  0  0  0  0
   -3.7548   -2.1855    0.0000 C   0  0  0  0  0  0  0  0  0  0  0  0
   -1.2135   -2.7256    0.0000 N   0  0  0  0  0  0  0  0  0  0  0  0
   -0.0000   -3.6073    0.0000 C   0  0  0  0  0  0  0  0  0  0  0  0
    1.2135   -2.7256    0.0000 C   0  0  0  0  0  0  0  0  0  0  0  0
    2.6401   -3.1891    0.0000 C   0  0  0  0  0  0  0  0  0  0  0  0
    3.7548   -2.1855    0.0000 O   0  0  0  0  0  0  0  0  0  0  0  0
    2.9520   -4.6564    0.0000 C   0  0  0  0  0  0  0  0  0  0  0  0
    1.8373   -5.6601    0.0000 C   0  0  0  0  0  0  0  0  0  0  0  0
    2.1491   -7.1273    0.0000 N   0  0  0  0  0  0  0  0  0  0  0  0
    3.5757   -7.5908    0.0000 C   0  0  0  0  0  0  0  0  0  0  0  0
    4.6904   -6.5871    0.0000 C   0  0  0  0  0  0  0  0  0  0  0  0
    6.1170   -7.0506    0.0000 N   0  0  0  0  0  0  0  0  0  0  0  0
    6.4289   -8.5179    0.0000 C   0  0  0  0  0  0  0  0  0  0  0  0
    5.3142   -9.5216    0.0000 O   0  0  0  0  0  0  0  0  0  0  0  0
    7.8555   -8.9814    0.0000 C   0  0  0  0  0  0  0  0  0  0  0  0
    8.1673  -10.4486    0.0000 N   0  0  0  0  0  0  0  0  0  0  0  0
    9.5377  -11.0587    0.0000 C   0  0  0  0  0  0  0  0  0  0  0  0
    9.3809  -12.5505    0.0000 C   0  0  0  0  0  0  0  0  0  0  0  0
   10.4956  -13.5542    0.0000 C   0  0  0  0  0  0  0  0  0  0  0  0
   11.6103  -14.5579    0.0000 F   0  0  0  0  0  0  0  0  0  0  0  0
    9.4919  -14.6689    0.0000 F   0  0  0  0  0  0  0  0  0  0  0  0
   11.4993  -12.4395    0.0000 F   0  0  0  0  0  0  0  0  0  0  0  0
    7.9136  -12.8624    0.0000 N   0  0  0  0  0  0  0  0  0  0  0  0
    7.1636  -11.5633    0.0000 N   0  0  0  0  0  0  0  0  0  0  0  0
    4.3786   -5.1199    0.0000 C   0  0  0  0  0  0  0  0  0  0  0  0
    0.7500   -1.2990    0.0000 C   0  0  0  0  0  0  0  0  0  0  0  0
    1.5000    0.0000    0.0000 C   0  0  0  0  0  0  0  0  0  0  0  0
    0.7500    1.2990    0.0000 N   0  0  0  0  0  0  0  0  0  0  0  0
   -0.7500    1.2990    0.0000 C   0  0  0  0  0  0  0  0  0  0  0  0
   -1.5000    0.0000    0.0000 N   0  0  0  0  0  0  0  0  0  0  0  0
   -0.7500   -1.2990    0.0000 C   0  0  0  0  0  0  0  0  0  0  0  0
  1  2  1  0
  2  3  1  0
  2  4  1  0
  4  5  1  0
  5  6  2  0
  6  7  1  0
  7  8  2  0
  7  9  1  0
  9 10  2  0
 10 11  1  0
 11 12  2  0
 12 13  1  0
 13 14  1  0
 14 15  1  0
 15 16  2  0
 15 17  1  0
 17 18  1  0
 18 19  1  0
 19 20  2  0
 20 21  1  0
 21 22  1  0
 21 23  1  0
 21 24  1  0
 20 25  1  0
 25 26  2  0
 13 27  2  0
  6 28  1  0
 28 29  2  0
 29 30  1  0
 30 31  2  0
 31 32  1  0
 32 33  2  0
 33  4  1  0
 27  9  1  0
 33 28  1  0
 26 18  1  0
M  END
>  <Compound_ID>  (120) 
CHEMBL3661500

>  <Molecule Name>  (120) 
nan

>  <Molecular Weight>  (120) 
458.4

>  <AlogP>  (120) 
2.89

>  <Smiles>  (120) 
CC(C)n1cc(C(=O)c2cncc(NC(=O)Cn3cc(C(F)(F)F)nn3)c2)c2cncnc21

>  <Standard Type>  (120) 
IC50

>  <Standard Relation>  (120) 
'='

>  <Standard Units>  (120) 
nM

>  <Standard Value>  (120) 
14.8

>  <Assay ChEMBL ID>  (120) 
CHEMBL3887033

>  <Assay Description>  (120) 
Enzyme Assay: Isolated TRK Enzyme assays use the HTRF KinEASE-TK kit (Cisbio Cat# 62TK0PEJ) with recombinant His-tagged cytoplasmic domains of each TRK receptor sourced from Invitrogen (see table below). This activity-assay measures the phosphorylation of tyrosine residues within a substrate from the HTRF kit which has been validated by Cisbio for a variety of tyrosine kinases including the TRK receptors. Assay details: Target:TRKA; Invitrogen Cat# PV3144; Amino acids:aa 441-796; FAC enzyme:4nM; FAC ATP:40uM; Assay Reaction Time:35min.

>  <BAO Format ID>  (120) 
BAO_0000357

>  <BAO Label>  (120) 
single protein format

>  <Assay Organism>  (120) 
None

>  <Target ChEMBL ID>  (120) 
CHEMBL2815

>  <Target Name>  (120) 
Nerve growth factor receptor Trk-A

>  <Target Organism>  (120) 
Homo sapiens

>  <Target Type>  (120) 
SINGLE PROTEIN

>  <Document ChEMBL ID>  (120) 
CHEMBL3639348

>  <Source Description>  (120) 
BindingDB Database

>  <Document Journal>  (120) 
nan

>  <Document Year>  (120) 
2014.0

>  <Active>  (120) 
1.0

>  <bits>  (120) 
<rdkit.DataStructs.cDataStructs.ExplicitBitVect object at 0x00000159F5490350>

>  <Group>  (120) 
G2

$$$$

     RDKit          2D

 31 34  0  0  0  0  0  0  0  0999 V2000
    3.7500   -1.2990    0.0000 C   0  0  0  0  0  0  0  0  0  0  0  0
    3.0000    0.0000    0.0000 C   0  0  0  0  0  0  0  0  0  0  0  0
    3.7500    1.2990    0.0000 O   0  0  0  0  0  0  0  0  0  0  0  0
    1.5000    0.0000    0.0000 N   0  0  0  0  0  0  0  0  0  0  0  0
    0.7500   -1.2990    0.0000 C   0  0  0  0  0  0  0  0  0  0  0  0
   -0.7500   -1.2990    0.0000 C   0  0  0  0  0  0  0  0  0  0  0  0
   -1.5000    0.0000    0.0000 N   0  0  0  0  0  0  0  0  0  0  0  0
   -3.0000    0.0000    0.0000 C   0  0  0  0  0  0  0  0  0  0  0  0
   -3.7500   -1.2990    0.0000 O   0  0  0  0  0  0  0  0  0  0  0  0
   -3.7500    1.2990    0.0000 C   0  0  0  0  0  0  0  0  0  0  0  0
   -3.0000    2.5981    0.0000 C   0  0  0  0  0  0  0  0  0  0  0  0
   -3.7500    3.8971    0.0000 C   0  0  0  0  0  0  0  0  0  0  0  0
   -5.2500    3.8971    0.0000 C   0  0  0  0  0  0  0  0  0  0  0  0
   -6.0000    2.5981    0.0000 C   0  0  0  0  0  0  0  0  0  0  0  0
   -7.5000    2.5981    0.0000 S   0  0  0  0  0  0  0  0  0  0  0  0
   -8.2500    3.8971    0.0000 C   0  0  0  0  0  0  0  0  0  0  0  0
   -9.7418    4.0539    0.0000 C   0  0  0  0  0  0  0  0  0  0  0  0
  -10.0537    5.5211    0.0000 N   0  0  0  0  0  0  0  0  0  0  0  0
   -8.7546    6.2711    0.0000 C   0  0  0  0  0  0  0  0  0  0  0  0
   -8.5978    7.7629    0.0000 N   0  0  0  0  0  0  0  0  0  0  0  0
   -7.2275    8.3730    0.0000 C   0  0  0  0  0  0  0  0  0  0  0  0
   -6.0140    7.4913    0.0000 C   0  0  0  0  0  0  0  0  0  0  0  0
   -4.6437    8.1014    0.0000 C   0  0  0  0  0  0  0  0  0  0  0  0
   -4.4869    9.5932    0.0000 C   0  0  0  0  0  0  0  0  0  0  0  0
   -5.7004   10.4749    0.0000 C   0  0  0  0  0  0  0  0  0  0  0  0
   -5.5436   11.9667    0.0000 Br  0  0  0  0  0  0  0  0  0  0  0  0
   -7.0707    9.8648    0.0000 N   0  0  0  0  0  0  0  0  0  0  0  0
   -7.6399    5.2674    0.0000 S   0  0  0  0  0  0  0  0  0  0  0  0
   -5.2500    1.2990    0.0000 C   0  0  0  0  0  0  0  0  0  0  0  0
   -0.7500    1.2990    0.0000 C   0  0  0  0  0  0  0  0  0  0  0  0
    0.7500    1.2990    0.0000 C   0  0  0  0  0  0  0  0  0  0  0  0
  1  2  1  0
  2  3  2  0
  2  4  1  0
  4  5  1  0
  5  6  1  0
  6  7  1  0
  7  8  1  0
  8  9  2  0
  8 10  1  0
 10 11  2  0
 11 12  1  0
 12 13  2  0
 13 14  1  0
 14 15  1  0
 15 16  1  0
 16 17  2  0
 17 18  1  0
 18 19  2  0
 19 20  1  0
 20 21  1  0
 21 22  2  0
 22 23  1  0
 23 24  2  0
 24 25  1  0
 25 26  1  0
 25 27  2  0
 19 28  1  0
 14 29  2  0
  7 30  1  0
 30 31  1  0
 31  4  1  0
 29 10  1  0
 28 16  1  0
 27 21  1  0
M  END
>  <Compound_ID>  (121) 
CHEMBL253847

>  <Molecule Name>  (121) 
nan

>  <Molecular Weight>  (121) 
518.46

>  <AlogP>  (121) 
4.5

>  <Smiles>  (121) 
CC(=O)N1CCN(C(=O)c2cccc(Sc3cnc(Nc4cccc(Br)n4)s3)c2)CC1

>  <Standard Type>  (121) 
IC50

>  <Standard Relation>  (121) 
'='

>  <Standard Units>  (121) 
nM

>  <Standard Value>  (121) 
50.0

>  <Assay ChEMBL ID>  (121) 
CHEMBL928869

>  <Assay Description>  (121) 
Inhibition of TrkA

>  <BAO Format ID>  (121) 
BAO_0000357

>  <BAO Label>  (121) 
single protein format

>  <Assay Organism>  (121) 
None

>  <Target ChEMBL ID>  (121) 
CHEMBL2815

>  <Target Name>  (121) 
Nerve growth factor receptor Trk-A

>  <Target Organism>  (121) 
Homo sapiens

>  <Target Type>  (121) 
SINGLE PROTEIN

>  <Document ChEMBL ID>  (121) 
CHEMBL1140800

>  <Source Description>  (121) 
Scientific Literature

>  <Document Journal>  (121) 
Bioorg Med Chem Lett

>  <Document Year>  (121) 
2008.0

>  <Active>  (121) 
1.0

>  <bits>  (121) 
<rdkit.DataStructs.cDataStructs.ExplicitBitVect object at 0x00000159F5490270>

>  <Group>  (121) 
G2

$$$$

     RDKit          2D

 31 34  0  0  0  0  0  0  0  0999 V2000
    7.3934   -3.6905    0.0000 C   0  0  0  0  0  0  0  0  0  0  0  0
    5.9262   -3.3786    0.0000 O   0  0  0  0  0  0  0  0  0  0  0  0
    5.4627   -1.9520    0.0000 C   0  0  0  0  0  0  0  0  0  0  0  0
    6.4664   -0.8373    0.0000 N   0  0  0  0  0  0  0  0  0  0  0  0
    6.0029    0.5893    0.0000 C   0  0  0  0  0  0  0  0  0  0  0  0
    4.5356    0.9012    0.0000 C   0  0  0  0  0  0  0  0  0  0  0  0
    4.0721    2.3277    0.0000 F   0  0  0  0  0  0  0  0  0  0  0  0
    3.5320   -0.2136    0.0000 C   0  0  0  0  0  0  0  0  0  0  0  0
    3.9955   -1.6402    0.0000 C   0  0  0  0  0  0  0  0  0  0  0  0
    2.9918   -2.7549    0.0000 C   0  0  0  0  0  0  0  0  0  0  0  0
    3.3037   -4.2221    0.0000 C   0  0  0  0  0  0  0  0  0  0  0  0
    2.0046   -4.9721    0.0000 C   0  0  0  0  0  0  0  0  0  0  0  0
    0.8899   -3.9684    0.0000 C   0  0  0  0  0  0  0  0  0  0  0  0
    1.5000   -2.5981    0.0000 N   0  0  0  0  0  0  0  0  0  0  0  0
    0.7500   -1.2990    0.0000 C   0  0  0  0  0  0  0  0  0  0  0  0
    1.5000    0.0000    0.0000 C   0  0  0  0  0  0  0  0  0  0  0  0
    0.7500    1.2990    0.0000 C   0  0  0  0  0  0  0  0  0  0  0  0
   -0.7500    1.2990    0.0000 N   0  0  0  0  0  0  0  0  0  0  0  0
   -1.7537    2.4138    0.0000 N   0  0  0  0  0  0  0  0  0  0  0  0
   -3.1240    1.8037    0.0000 C   0  0  0  0  0  0  0  0  0  0  0  0
   -2.9672    0.3119    0.0000 C   0  0  0  0  0  0  0  0  0  0  0  0
   -4.0819   -0.6918    0.0000 C   0  0  0  0  0  0  0  0  0  0  0  0
   -3.7701   -2.1590    0.0000 O   0  0  0  0  0  0  0  0  0  0  0  0
   -5.5085   -0.2283    0.0000 N   0  0  0  0  0  0  0  0  0  0  0  0
   -6.6232   -1.2320    0.0000 C   0  0  0  0  0  0  0  0  0  0  0  0
   -8.0498   -0.7685    0.0000 C   0  0  0  0  0  0  0  0  0  0  0  0
   -9.1645   -1.7722    0.0000 O   0  0  0  0  0  0  0  0  0  0  0  0
   -6.3114   -2.6992    0.0000 C   0  0  0  0  0  0  0  0  0  0  0  0
   -7.4261   -3.7029    0.0000 O   0  0  0  0  0  0  0  0  0  0  0  0
   -1.5000    0.0000    0.0000 C   0  0  0  0  0  0  0  0  0  0  0  0
   -0.7500   -1.2990    0.0000 N   0  0  0  0  0  0  0  0  0  0  0  0
  1  2  1  0
  2  3  1  0
  3  4  2  0
  4  5  1  0
  5  6  2  0
  6  7  1  0
  6  8  1  0
  8  9  2  0
 10  9  1  1
 10 11  1  0
 11 12  1  0
 12 13  1  0
 13 14  1  0
 14 15  1  0
 15 16  1  0
 16 17  2  0
 17 18  1  0
 18 19  1  0
 19 20  2  0
 20 21  1  0
 21 22  1  0
 22 23  2  0
 22 24  1  0
 24 25  1  0
 25 26  1  0
 26 27  1  0
 25 28  1  0
 28 29  1  0
 21 30  2  0
 30 31  1  0
  9  3  1  0
 14 10  1  0
 31 15  2  0
 30 18  1  0
M  END
>  <Compound_ID>  (122) 
CHEMBL3676031

>  <Molecule Name>  (122) 
nan

>  <Molecular Weight>  (122) 
430.44

>  <AlogP>  (122) 
0.7

>  <Smiles>  (122) 
COc1ncc(F)cc1[C@H]1CCCN1c1ccn2ncc(C(=O)NC(CO)CO)c2n1

>  <Standard Type>  (122) 
IC50

>  <Standard Relation>  (122) 
'='

>  <Standard Units>  (122) 
nM

>  <Standard Value>  (122) 
25.6

>  <Assay ChEMBL ID>  (122) 
CHEMBL3887070

>  <Assay Description>  (122) 
ELISA Assay: An enzyme-linked immunosorbant assay (ELISA) was used to assess TrkA kinase activity in the presence of inhibitors. Immulon 4HBX 384-well microtiter plates (Thermo part #8755) were coated with a 0.025 mg/mL solution of poly (Glu, Ala, Tyr; 6:3:1; Sigma P3899). Various concentrations of test compound, 2.5 nM TrkA (Invitrogen Corp., histidine-tagged recombinant human TrkA, cytoplasmic domain), and 500 uM ATP were incubated for 25 minutes at ambient temperature in the coated plates while shaking The assay buffer consisted of 25 mM MOPS pH 7.5, 0.005% (v/v) Triton X-100 and 5 mM MgCl2. The reaction mixture was removed from the plate by washing with PBS containing 0.1% (v/v) Tween 20. The phosphorylated reaction product was detected using 0.2 ug/mL of a phosphotyrosine specific monoclonal antibody (clone PY20) conjugated to horseradish peroxidase in conjunction with the TMB Peroxidase Substrate System (KPL).

>  <BAO Format ID>  (122) 
BAO_0000357

>  <BAO Label>  (122) 
single protein format

>  <Assay Organism>  (122) 
None

>  <Target ChEMBL ID>  (122) 
CHEMBL2815

>  <Target Name>  (122) 
Nerve growth factor receptor Trk-A

>  <Target Organism>  (122) 
Homo sapiens

>  <Target Type>  (122) 
SINGLE PROTEIN

>  <Document ChEMBL ID>  (122) 
CHEMBL3638907

>  <Source Description>  (122) 
BindingDB Database

>  <Document Journal>  (122) 
nan

>  <Document Year>  (122) 
2014.0

>  <Active>  (122) 
1.0

>  <bits>  (122) 
<rdkit.DataStructs.cDataStructs.ExplicitBitVect object at 0x00000159F5490200>

>  <Group>  (122) 
G2

$$$$

     RDKit          2D

 29 31  0  0  0  0  0  0  0  0999 V2000
    3.7500   -6.4952    0.0000 C   0  0  0  0  0  0  0  0  0  0  0  0
    3.0000   -5.1962    0.0000 N   0  0  0  0  0  0  0  0  0  0  0  0
    3.7500   -3.8971    0.0000 C   0  0  0  0  0  0  0  0  0  0  0  0
    3.0000   -2.5981    0.0000 C   0  0  0  0  0  0  0  0  0  0  0  0
    3.7500   -1.2990    0.0000 N   0  0  0  0  0  0  0  0  0  0  0  0
    5.2500   -1.2990    0.0000 C   0  0  0  0  0  0  0  0  0  0  0  0
    3.0000    0.0000    0.0000 C   0  0  0  0  0  0  0  0  0  0  0  0
    3.7500    1.2990    0.0000 O   0  0  0  0  0  0  0  0  0  0  0  0
    1.5000    0.0000    0.0000 C   0  0  0  0  0  0  0  0  0  0  0  0
    0.7500   -1.2990    0.0000 C   0  0  0  0  0  0  0  0  0  0  0  0
   -0.7500   -1.2990    0.0000 C   0  0  0  0  0  0  0  0  0  0  0  0
   -1.5000   -2.5981    0.0000 S   0  0  0  0  0  0  0  0  0  0  0  0
   -3.0000   -2.5981    0.0000 C   0  0  0  0  0  0  0  0  0  0  0  0
   -3.8817   -3.8116    0.0000 C   0  0  0  0  0  0  0  0  0  0  0  0
   -5.3083   -3.3481    0.0000 N   0  0  0  0  0  0  0  0  0  0  0  0
   -5.3083   -1.8481    0.0000 C   0  0  0  0  0  0  0  0  0  0  0  0
   -6.5218   -0.9664    0.0000 N   0  0  0  0  0  0  0  0  0  0  0  0
   -6.3650    0.5254    0.0000 C   0  0  0  0  0  0  0  0  0  0  0  0
   -4.9947    1.1355    0.0000 C   0  0  0  0  0  0  0  0  0  0  0  0
   -4.8379    2.6273    0.0000 C   0  0  0  0  0  0  0  0  0  0  0  0
   -6.0514    3.5090    0.0000 C   0  0  0  0  0  0  0  0  0  0  0  0
   -7.4217    2.8988    0.0000 C   0  0  0  0  0  0  0  0  0  0  0  0
   -8.6353    3.7805    0.0000 Br  0  0  0  0  0  0  0  0  0  0  0  0
   -7.5785    1.4071    0.0000 N   0  0  0  0  0  0  0  0  0  0  0  0
   -3.8817   -1.3846    0.0000 S   0  0  0  0  0  0  0  0  0  0  0  0
   -1.5000    0.0000    0.0000 C   0  0  0  0  0  0  0  0  0  0  0  0
   -0.7500    1.2990    0.0000 C   0  0  0  0  0  0  0  0  0  0  0  0
    0.7500    1.2990    0.0000 C   0  0  0  0  0  0  0  0  0  0  0  0
    1.5000    2.5981    0.0000 C   0  0  0  0  0  0  0  0  0  0  0  0
  1  2  1  0
  2  3  1  0
  3  4  1  0
  4  5  1  0
  5  6  1  0
  5  7  1  0
  7  8  2  0
  7  9  1  0
  9 10  2  0
 10 11  1  0
 11 12  1  0
 12 13  1  0
 13 14  2  0
 14 15  1  0
 15 16  2  0
 16 17  1  0
 17 18  1  0
 18 19  2  0
 19 20  1  0
 20 21  2  0
 21 22  1  0
 22 23  1  0
 22 24  2  0
 16 25  1  0
 11 26  2  0
 26 27  1  0
 27 28  2  0
 28 29  1  0
 28  9  1  0
 25 13  1  0
 24 18  1  0
M  END
>  <Compound_ID>  (123) 
CHEMBL254269

>  <Molecule Name>  (123) 
nan

>  <Molecular Weight>  (123) 
492.47

>  <AlogP>  (123) 
4.8

>  <Smiles>  (123) 
CNCCN(C)C(=O)c1cc(Sc2cnc(Nc3cccc(Br)n3)s2)ccc1C

>  <Standard Type>  (123) 
IC50

>  <Standard Relation>  (123) 
'='

>  <Standard Units>  (123) 
nM

>  <Standard Value>  (123) 
31.0

>  <Assay ChEMBL ID>  (123) 
CHEMBL928869

>  <Assay Description>  (123) 
Inhibition of TrkA

>  <BAO Format ID>  (123) 
BAO_0000357

>  <BAO Label>  (123) 
single protein format

>  <Assay Organism>  (123) 
None

>  <Target ChEMBL ID>  (123) 
CHEMBL2815

>  <Target Name>  (123) 
Nerve growth factor receptor Trk-A

>  <Target Organism>  (123) 
Homo sapiens

>  <Target Type>  (123) 
SINGLE PROTEIN

>  <Document ChEMBL ID>  (123) 
CHEMBL1140800

>  <Source Description>  (123) 
Scientific Literature

>  <Document Journal>  (123) 
Bioorg Med Chem Lett

>  <Document Year>  (123) 
2008.0

>  <Active>  (123) 
1.0

>  <bits>  (123) 
<rdkit.DataStructs.cDataStructs.ExplicitBitVect object at 0x00000159F5490190>

>  <Group>  (123) 
G2

$$$$

     RDKit          2D

 35 38  0  0  0  0  0  0  0  0999 V2000
   -2.9520   -4.6564    0.0000 C   0  0  0  0  0  0  0  0  0  0  0  0
   -2.6401   -3.1891    0.0000 C   0  0  0  0  0  0  0  0  0  0  0  0
   -3.7548   -2.1855    0.0000 C   0  0  0  0  0  0  0  0  0  0  0  0
   -5.1814   -2.6490    0.0000 O   0  0  0  0  0  0  0  0  0  0  0  0
   -1.2135   -2.7256    0.0000 N   0  0  0  0  0  0  0  0  0  0  0  0
   -0.0000   -3.6073    0.0000 C   0  0  0  0  0  0  0  0  0  0  0  0
    1.2135   -2.7256    0.0000 C   0  0  0  0  0  0  0  0  0  0  0  0
    2.6401   -3.1891    0.0000 C   0  0  0  0  0  0  0  0  0  0  0  0
    3.7548   -2.1855    0.0000 O   0  0  0  0  0  0  0  0  0  0  0  0
    2.9520   -4.6564    0.0000 C   0  0  0  0  0  0  0  0  0  0  0  0
    1.8373   -5.6601    0.0000 C   0  0  0  0  0  0  0  0  0  0  0  0
    2.1491   -7.1273    0.0000 N   0  0  0  0  0  0  0  0  0  0  0  0
    3.5757   -7.5908    0.0000 C   0  0  0  0  0  0  0  0  0  0  0  0
    4.6904   -6.5871    0.0000 C   0  0  0  0  0  0  0  0  0  0  0  0
    6.1170   -7.0506    0.0000 N   0  0  0  0  0  0  0  0  0  0  0  0
    6.4289   -8.5179    0.0000 C   0  0  0  0  0  0  0  0  0  0  0  0
    5.3142   -9.5216    0.0000 O   0  0  0  0  0  0  0  0  0  0  0  0
    7.8555   -8.9814    0.0000 C   0  0  0  0  0  0  0  0  0  0  0  0
    8.1673  -10.4486    0.0000 N   0  0  0  0  0  0  0  0  0  0  0  0
    9.5377  -11.0587    0.0000 C   0  0  0  0  0  0  0  0  0  0  0  0
    9.3809  -12.5505    0.0000 C   0  0  0  0  0  0  0  0  0  0  0  0
   10.4956  -13.5542    0.0000 C   0  0  0  0  0  0  0  0  0  0  0  0
   11.6103  -14.5579    0.0000 F   0  0  0  0  0  0  0  0  0  0  0  0
    9.4919  -14.6689    0.0000 F   0  0  0  0  0  0  0  0  0  0  0  0
   11.4993  -12.4395    0.0000 F   0  0  0  0  0  0  0  0  0  0  0  0
    7.9136  -12.8624    0.0000 C   0  0  0  0  0  0  0  0  0  0  0  0
    7.1636  -11.5633    0.0000 N   0  0  0  0  0  0  0  0  0  0  0  0
    4.3786   -5.1199    0.0000 C   0  0  0  0  0  0  0  0  0  0  0  0
    0.7500   -1.2990    0.0000 C   0  0  0  0  0  0  0  0  0  0  0  0
    1.5000    0.0000    0.0000 C   0  0  0  0  0  0  0  0  0  0  0  0
    0.7500    1.2990    0.0000 N   0  0  0  0  0  0  0  0  0  0  0  0
   -0.7500    1.2990    0.0000 C   0  0  0  0  0  0  0  0  0  0  0  0
   -1.5000    0.0000    0.0000 C   0  0  0  0  0  0  0  0  0  0  0  0
   -3.0000    0.0000    0.0000 F   0  0  0  0  0  0  0  0  0  0  0  0
   -0.7500   -1.2990    0.0000 C   0  0  0  0  0  0  0  0  0  0  0  0
  1  2  1  0
  2  3  1  0
  3  4  1  0
  2  5  1  0
  5  6  1  0
  6  7  2  0
  7  8  1  0
  8  9  2  0
  8 10  1  0
 10 11  2  0
 11 12  1  0
 12 13  2  0
 13 14  1  0
 14 15  1  0
 15 16  1  0
 16 17  2  0
 16 18  1  0
 18 19  1  0
 19 20  1  0
 20 21  2  0
 21 22  1  0
 22 23  1  0
 22 24  1  0
 22 25  1  0
 21 26  1  0
 26 27  2  0
 14 28  2  0
  7 29  1  0
 29 30  2  0
 30 31  1  0
 31 32  2  0
 32 33  1  0
 33 34  1  0
 33 35  2  0
 35  5  1  0
 28 10  1  0
 35 29  1  0
 27 19  1  0
M  END
>  <Compound_ID>  (124) 
CHEMBL3916528

>  <Molecule Name>  (124) 
nan

>  <Molecular Weight>  (124) 
490.42

>  <AlogP>  (124) 
3.21

>  <Smiles>  (124) 
CC(CO)n1cc(C(=O)c2cncc(NC(=O)Cn3cc(C(F)(F)F)cn3)c2)c2cncc(F)c21

>  <Standard Type>  (124) 
IC50

>  <Standard Relation>  (124) 
'='

>  <Standard Units>  (124) 
nM

>  <Standard Value>  (124) 
24.3

>  <Assay ChEMBL ID>  (124) 
CHEMBL3887111

>  <Assay Description>  (124) 
HTRF Assay: Isolated TRK Enzyme assays use the HTRF KinEASE-TK kit (Cisbio Cat#62TK0PEJ) with recombinant His-tagged cytoplasmic domains of each TRK receptor sourced from Invitrogen (see table below). This activity-assay measures the phosphorylation of tyrosine residues within a substrate from the HTRF kit which has been validated by Cisbio for a variety of tyrosine kinases including the TRK receptors.Assay Details: Invitrogen Amino FAC FAC Assay ReactionTarget Cat# acids enzyme ATP TimeTRKA PV3144 aa 441-4 nM 40 uM 35 min (NTRK1) 796 TRKB PV3616 aa 526-1 nM 1.4 uM 40 min (NTRK2) 838 TRKC PV3617 aa 510- 10 nM 15 uM 30 min (NTRK3) 8250.5 mM stock solutions of test compounds are prepared and serially diluted in 100% DMSO. A standard curve using the compound of Example 135 disclosed in WO2005/116035 of 150 uM is also prepared on each test plate. High percentage effect (HPE) is defined by 150 uM.

>  <BAO Format ID>  (124) 
BAO_0000357

>  <BAO Label>  (124) 
single protein format

>  <Assay Organism>  (124) 
None

>  <Target ChEMBL ID>  (124) 
CHEMBL2815

>  <Target Name>  (124) 
Nerve growth factor receptor Trk-A

>  <Target Organism>  (124) 
Homo sapiens

>  <Target Type>  (124) 
SINGLE PROTEIN

>  <Document ChEMBL ID>  (124) 
CHEMBL3886170

>  <Source Description>  (124) 
BindingDB Database

>  <Document Journal>  (124) 
nan

>  <Document Year>  (124) 
2015.0

>  <Active>  (124) 
1.0

>  <bits>  (124) 
<rdkit.DataStructs.cDataStructs.ExplicitBitVect object at 0x00000159F5492AB0>

>  <Group>  (124) 
G2

$$$$

     RDKit          2D

 32 37  0  0  0  0  0  0  0  0999 V2000
   -3.7548   -2.1855    0.0000 O   0  0  0  0  0  0  0  0  0  0  0  0
   -2.6401   -3.1891    0.0000 C   0  0  0  0  0  0  0  0  0  0  0  0
   -2.9520   -4.6564    0.0000 N   0  0  0  0  0  0  0  0  0  0  0  0
   -4.3786   -5.1199    0.0000 C   0  0  0  0  0  0  0  0  0  0  0  0
   -5.5921   -4.2382    0.0000 C   0  0  0  0  0  0  0  0  0  0  0  0
   -6.8056   -5.1199    0.0000 C   0  0  0  0  0  0  0  0  0  0  0  0
   -7.2691   -6.5465    0.0000 C   0  0  0  0  0  0  0  0  0  0  0  0
   -6.0556   -7.4282    0.0000 C   0  0  0  0  0  0  0  0  0  0  0  0
   -4.8421   -6.5465    0.0000 C   0  0  0  0  0  0  0  0  0  0  0  0
   -5.3056   -5.1199    0.0000 C   0  0  0  0  0  0  0  0  0  0  0  0
   -1.2135   -2.7256    0.0000 C   0  0  0  0  0  0  0  0  0  0  0  0
   -0.0000   -3.6073    0.0000 C   0  0  0  0  0  0  0  0  0  0  0  0
    1.2135   -2.7256    0.0000 N   0  0  0  0  0  0  0  0  0  0  0  0
    0.7500   -1.2990    0.0000 N   0  0  0  0  0  0  0  0  0  0  0  0
    1.5000    0.0000    0.0000 C   0  0  0  0  0  0  0  0  0  0  0  0
    0.7500    1.2990    0.0000 C   0  0  0  0  0  0  0  0  0  0  0  0
   -0.7500    1.2990    0.0000 C   0  0  0  0  0  0  0  0  0  0  0  0
   -1.5000    2.5981    0.0000 N   0  0  0  0  0  0  0  0  0  0  0  0
   -2.9918    2.7549    0.0000 C   0  0  0  0  0  0  0  0  0  0  0  0
   -3.3037    4.2221    0.0000 C   0  0  0  0  0  0  0  0  0  0  0  0
   -2.0046    4.9721    0.0000 C   0  0  0  0  0  0  0  0  0  0  0  0
   -0.8899    3.9684    0.0000 C   0  0  0  0  0  0  0  0  0  0  0  0
    0.5773    4.2803    0.0000 C   0  0  0  0  0  0  0  0  0  0  0  0
    1.5810    3.1655    0.0000 C   0  0  0  0  0  0  0  0  0  0  0  0
    3.0482    3.4774    0.0000 C   0  0  0  0  0  0  0  0  0  0  0  0
    4.0519    2.3627    0.0000 F   0  0  0  0  0  0  0  0  0  0  0  0
    3.5118    4.9040    0.0000 C   0  0  0  0  0  0  0  0  0  0  0  0
    2.5081    6.0187    0.0000 C   0  0  0  0  0  0  0  0  0  0  0  0
    1.0409    5.7068    0.0000 C   0  0  0  0  0  0  0  0  0  0  0  0
    0.0372    6.8216    0.0000 F   0  0  0  0  0  0  0  0  0  0  0  0
   -1.5000    0.0000    0.0000 N   0  0  0  0  0  0  0  0  0  0  0  0
   -0.7500   -1.2990    0.0000 C   0  0  0  0  0  0  0  0  0  0  0  0
  1  2  2  0
  2  3  1  0
  4  3  1  6
  4  5  1  0
  5  6  1  0
  6  7  1  0
  7  8  1  0
  8  9  1  0
  9 10  1  0
  2 11  1  0
 11 12  1  0
 12 13  2  0
 13 14  1  0
 14 15  1  0
 15 16  2  0
 16 17  1  0
 17 18  1  0
 18 19  1  0
 19 20  1  0
 20 21  1  0
 21 22  1  0
 22 23  1  6
 23 24  2  0
 24 25  1  0
 25 26  1  0
 25 27  2  0
 27 28  1  0
 28 29  2  0
 29 30  1  0
 17 31  2  0
 31 32  1  0
  9  4  1  0
 32 11  2  0
 10  6  1  0
 32 14  1  0
 22 18  1  0
 29 23  1  0
M  END
>  <Compound_ID>  (125) 
CHEMBL3671143

>  <Molecule Name>  (125) 
nan

>  <Molecular Weight>  (125) 
437.49

>  <AlogP>  (125) 
4.27

>  <Smiles>  (125) 
O=C(N[C@H]1CC2CCC1C2)c1cnn2ccc(N3CCC[C@@H]3c3cc(F)ccc3F)nc12

>  <Standard Type>  (125) 
IC50

>  <Standard Relation>  (125) 
'='

>  <Standard Units>  (125) 
nM

>  <Standard Value>  (125) 
0.6

>  <Assay ChEMBL ID>  (125) 
CHEMBL3887070

>  <Assay Description>  (125) 
ELISA Assay: An enzyme-linked immunosorbant assay (ELISA) was used to assess TrkA kinase activity in the presence of inhibitors. Immulon 4HBX 384-well microtiter plates (Thermo part #8755) were coated with a 0.025 mg/mL solution of poly (Glu, Ala, Tyr; 6:3:1; Sigma P3899). Various concentrations of test compound, 2.5 nM TrkA (Invitrogen Corp., histidine-tagged recombinant human TrkA, cytoplasmic domain), and 500 uM ATP were incubated for 25 minutes at ambient temperature in the coated plates while shaking The assay buffer consisted of 25 mM MOPS pH 7.5, 0.005% (v/v) Triton X-100 and 5 mM MgCl2. The reaction mixture was removed from the plate by washing with PBS containing 0.1% (v/v) Tween 20. The phosphorylated reaction product was detected using 0.2 ug/mL of a phosphotyrosine specific monoclonal antibody (clone PY20) conjugated to horseradish peroxidase in conjunction with the TMB Peroxidase Substrate System (KPL).

>  <BAO Format ID>  (125) 
BAO_0000357

>  <BAO Label>  (125) 
single protein format

>  <Assay Organism>  (125) 
None

>  <Target ChEMBL ID>  (125) 
CHEMBL2815

>  <Target Name>  (125) 
Nerve growth factor receptor Trk-A

>  <Target Organism>  (125) 
Homo sapiens

>  <Target Type>  (125) 
SINGLE PROTEIN

>  <Document ChEMBL ID>  (125) 
CHEMBL3638907

>  <Source Description>  (125) 
BindingDB Database

>  <Document Journal>  (125) 
nan

>  <Document Year>  (125) 
2014.0

>  <Active>  (125) 
1.0

>  <bits>  (125) 
<rdkit.DataStructs.cDataStructs.ExplicitBitVect object at 0x00000159F5493DF0>

>  <Group>  (125) 
G2

$$$$

     RDKit          2D

 30 34  0  0  0  0  0  0  0  0999 V2000
   -1.8373   -5.6601    0.0000 O   0  0  0  0  0  0  0  0  0  0  0  0
   -2.9520   -4.6564    0.0000 C   0  0  0  0  0  0  0  0  0  0  0  0
   -2.6401   -3.1891    0.0000 N   0  0  0  0  0  0  0  0  0  0  0  0
   -1.2135   -2.7256    0.0000 C   0  0  0  0  0  0  0  0  0  0  0  0
   -0.0000   -3.6073    0.0000 C   0  0  0  0  0  0  0  0  0  0  0  0
    1.2135   -2.7256    0.0000 N   0  0  0  0  0  0  0  0  0  0  0  0
    0.7500   -1.2990    0.0000 N   0  0  0  0  0  0  0  0  0  0  0  0
    1.5000    0.0000    0.0000 C   0  0  0  0  0  0  0  0  0  0  0  0
    0.7500    1.2990    0.0000 C   0  0  0  0  0  0  0  0  0  0  0  0
   -0.7500    1.2990    0.0000 C   0  0  0  0  0  0  0  0  0  0  0  0
   -1.5000    2.5981    0.0000 N   0  0  0  0  0  0  0  0  0  0  0  0
   -2.9918    2.7549    0.0000 C   0  0  0  0  0  0  0  0  0  0  0  0
   -3.3037    4.2221    0.0000 C   0  0  0  0  0  0  0  0  0  0  0  0
   -2.0046    4.9721    0.0000 C   0  0  0  0  0  0  0  0  0  0  0  0
   -0.8899    3.9684    0.0000 C   0  0  0  0  0  0  0  0  0  0  0  0
    0.5773    4.2803    0.0000 C   0  0  0  0  0  0  0  0  0  0  0  0
    1.5810    3.1655    0.0000 C   0  0  0  0  0  0  0  0  0  0  0  0
    3.0482    3.4774    0.0000 C   0  0  0  0  0  0  0  0  0  0  0  0
    3.5118    4.9040    0.0000 C   0  0  0  0  0  0  0  0  0  0  0  0
    2.5081    6.0187    0.0000 C   0  0  0  0  0  0  0  0  0  0  0  0
    2.9716    7.4453    0.0000 F   0  0  0  0  0  0  0  0  0  0  0  0
    1.0409    5.7068    0.0000 C   0  0  0  0  0  0  0  0  0  0  0  0
   -1.5000    0.0000    0.0000 N   0  0  0  0  0  0  0  0  0  0  0  0
   -0.7500   -1.2990    0.0000 C   0  0  0  0  0  0  0  0  0  0  0  0
   -4.3786   -5.1199    0.0000 C   0  0  0  0  0  0  0  0  0  0  0  0
   -5.4933   -4.1162    0.0000 C   0  0  0  0  0  0  0  0  0  0  0  0
   -6.9199   -4.5797    0.0000 C   0  0  0  0  0  0  0  0  0  0  0  0
   -7.2317   -6.0469    0.0000 C   0  0  0  0  0  0  0  0  0  0  0  0
   -6.1170   -7.0506    0.0000 C   0  0  0  0  0  0  0  0  0  0  0  0
   -4.6904   -6.5871    0.0000 N   0  0  0  0  0  0  0  0  0  0  0  0
  1  2  2  0
  2  3  1  0
  3  4  1  0
  4  5  1  0
  5  6  2  0
  6  7  1  0
  7  8  1  0
  8  9  2  0
  9 10  1  0
 10 11  1  0
 11 12  1  0
 12 13  1  0
 13 14  1  0
 14 15  1  0
 15 16  1  6
 16 17  2  0
 17 18  1  0
 18 19  2  0
 19 20  1  0
 20 21  1  0
 20 22  2  0
 10 23  2  0
 23 24  1  0
  2 25  1  0
 25 26  2  0
 26 27  1  0
 27 28  2  0
 28 29  1  0
 29 30  2  0
 24  4  2  0
 30 25  1  0
 24  7  1  0
 15 11  1  0
 22 16  1  0
M  END
>  <Compound_ID>  (126) 
CHEMBL4108424

>  <Molecule Name>  (126) 
nan

>  <Molecular Weight>  (126) 
402.43

>  <AlogP>  (126) 
3.86

>  <Smiles>  (126) 
O=C(Nc1cnn2ccc(N3CCC[C@@H]3c3cccc(F)c3)nc12)c1ccccn1

>  <Standard Type>  (126) 
IC50

>  <Standard Relation>  (126) 
'='

>  <Standard Units>  (126) 
nM

>  <Standard Value>  (126) 
4.0

>  <Assay ChEMBL ID>  (126) 
CHEMBL3887076

>  <Assay Description>  (126) 
ELISA Assay: An enzyme-linked immunosorbant assay (ELISA) was used to assess TrkA kinase activity in the presence of inhibitors. Immulon 4HBX 384-well microtiter plates (Thermo part #8755) were coated with a 0.025 mg/mL solution of poly (Glu, Ala, Tyr; 6:3:1; Sigma P3899). Various concentrations of test compound, 2.5 nM TrkA (Invitrogen Corp., histidine-tagged recombinant human TrkA, cytoplasmic domain), and 500 uM ATP were incubated for 25 minutes at ambient temperature in the coated plates while shaking. The assay buffer consisted of 25 mM MOPS pH 7.5, 0.005% (v/v) Triton X-100 and 5 mM MgCl2. The reaction mixture was removed from the plate by washing with PBS containing 0.1% (v/v) Tween 20. The phosphorylated reaction product was detected using 0.2 ug/mL of a phosphotyrosine specific monoclonal antibody (clone PY20) conjugated to horseradish peroxidase in conjunction with the TMB Peroxidase Substrate System (KPL).

>  <BAO Format ID>  (126) 
BAO_0000357

>  <BAO Label>  (126) 
single protein format

>  <Assay Organism>  (126) 
None

>  <Target ChEMBL ID>  (126) 
CHEMBL2815

>  <Target Name>  (126) 
Nerve growth factor receptor Trk-A

>  <Target Organism>  (126) 
Homo sapiens

>  <Target Type>  (126) 
SINGLE PROTEIN

>  <Document ChEMBL ID>  (126) 
CHEMBL3886151

>  <Source Description>  (126) 
BindingDB Database

>  <Document Journal>  (126) 
nan

>  <Document Year>  (126) 
2014.0

>  <Active>  (126) 
1.0

>  <bits>  (126) 
<rdkit.DataStructs.cDataStructs.ExplicitBitVect object at 0x00000159F54909E0>

>  <Group>  (126) 
G2

$$$$

     RDKit          2D

 34 38  0  0  0  0  0  0  0  0999 V2000
   -2.9520   -4.6564    0.0000 C   0  0  0  0  0  0  0  0  0  0  0  0
   -2.6401   -3.1891    0.0000 C   0  0  0  0  0  0  0  0  0  0  0  0
   -3.7548   -2.1855    0.0000 C   0  0  0  0  0  0  0  0  0  0  0  0
   -5.1814   -2.6490    0.0000 O   0  0  0  0  0  0  0  0  0  0  0  0
   -1.2135   -2.7256    0.0000 N   0  0  0  0  0  0  0  0  0  0  0  0
   -0.0000   -3.6073    0.0000 C   0  0  0  0  0  0  0  0  0  0  0  0
    1.2135   -2.7256    0.0000 C   0  0  0  0  0  0  0  0  0  0  0  0
    2.6401   -3.1891    0.0000 C   0  0  0  0  0  0  0  0  0  0  0  0
    3.7548   -2.1855    0.0000 O   0  0  0  0  0  0  0  0  0  0  0  0
    2.9520   -4.6564    0.0000 C   0  0  0  0  0  0  0  0  0  0  0  0
    1.8373   -5.6601    0.0000 C   0  0  0  0  0  0  0  0  0  0  0  0
    2.1491   -7.1273    0.0000 N   0  0  0  0  0  0  0  0  0  0  0  0
    3.5757   -7.5908    0.0000 C   0  0  0  0  0  0  0  0  0  0  0  0
    4.6904   -6.5871    0.0000 C   0  0  0  0  0  0  0  0  0  0  0  0
    6.1170   -7.0506    0.0000 N   0  0  0  0  0  0  0  0  0  0  0  0
    6.4289   -8.5179    0.0000 C   0  0  0  0  0  0  0  0  0  0  0  0
    5.3142   -9.5216    0.0000 O   0  0  0  0  0  0  0  0  0  0  0  0
    7.8555   -8.9814    0.0000 C   0  0  0  0  0  0  0  0  0  0  0  0
    8.1673  -10.4486    0.0000 C   0  0  0  0  0  0  0  0  0  0  0  0
    7.1636  -11.5633    0.0000 N   0  0  0  0  0  0  0  0  0  0  0  0
    7.9136  -12.8624    0.0000 C   0  0  0  0  0  0  0  0  0  0  0  0
    7.4501  -14.2890    0.0000 C   0  0  0  0  0  0  0  0  0  0  0  0
    8.4538  -15.4037    0.0000 C   0  0  0  0  0  0  0  0  0  0  0  0
    9.9210  -15.0918    0.0000 C   0  0  0  0  0  0  0  0  0  0  0  0
   10.3846  -13.6652    0.0000 C   0  0  0  0  0  0  0  0  0  0  0  0
    9.3809  -12.5505    0.0000 C   0  0  0  0  0  0  0  0  0  0  0  0
    9.5377  -11.0587    0.0000 N   0  0  0  0  0  0  0  0  0  0  0  0
    4.3786   -5.1199    0.0000 C   0  0  0  0  0  0  0  0  0  0  0  0
    0.7500   -1.2990    0.0000 C   0  0  0  0  0  0  0  0  0  0  0  0
    1.5000    0.0000    0.0000 C   0  0  0  0  0  0  0  0  0  0  0  0
    0.7500    1.2990    0.0000 N   0  0  0  0  0  0  0  0  0  0  0  0
   -0.7500    1.2990    0.0000 C   0  0  0  0  0  0  0  0  0  0  0  0
   -1.5000    0.0000    0.0000 N   0  0  0  0  0  0  0  0  0  0  0  0
   -0.7500   -1.2990    0.0000 C   0  0  0  0  0  0  0  0  0  0  0  0
  2  1  1  1
  2  3  1  0
  3  4  1  0
  2  5  1  0
  5  6  1  0
  6  7  2  0
  7  8  1  0
  8  9  2  0
  8 10  1  0
 10 11  2  0
 11 12  1  0
 12 13  2  0
 13 14  1  0
 14 15  1  0
 15 16  1  0
 16 17  2  0
 16 18  1  0
 18 19  1  0
 19 20  2  0
 20 21  1  0
 21 22  2  0
 22 23  1  0
 23 24  2  0
 24 25  1  0
 25 26  2  0
 26 27  1  0
 14 28  2  0
  7 29  1  0
 29 30  2  0
 30 31  1  0
 31 32  2  0
 32 33  1  0
 33 34  2  0
 34  5  1  0
 28 10  1  0
 34 29  1  0
 27 19  1  0
 26 21  1  0
M  END
>  <Compound_ID>  (127) 
CHEMBL3671409

>  <Molecule Name>  (127) 
nan

>  <Molecular Weight>  (127) 
455.48

>  <AlogP>  (127) 
2.67

>  <Smiles>  (127) 
C[C@@H](CO)n1cc(C(=O)c2cncc(NC(=O)Cc3nc4ccccc4[nH]3)c2)c2cncnc21

>  <Standard Type>  (127) 
IC50

>  <Standard Relation>  (127) 
'='

>  <Standard Units>  (127) 
nM

>  <Standard Value>  (127) 
31.3

>  <Assay ChEMBL ID>  (127) 
CHEMBL3887033

>  <Assay Description>  (127) 
Enzyme Assay: Isolated TRK Enzyme assays use the HTRF KinEASE-TK kit (Cisbio Cat# 62TK0PEJ) with recombinant His-tagged cytoplasmic domains of each TRK receptor sourced from Invitrogen (see table below). This activity-assay measures the phosphorylation of tyrosine residues within a substrate from the HTRF kit which has been validated by Cisbio for a variety of tyrosine kinases including the TRK receptors. Assay details: Target:TRKA; Invitrogen Cat# PV3144; Amino acids:aa 441-796; FAC enzyme:4nM; FAC ATP:40uM; Assay Reaction Time:35min.

>  <BAO Format ID>  (127) 
BAO_0000357

>  <BAO Label>  (127) 
single protein format

>  <Assay Organism>  (127) 
None

>  <Target ChEMBL ID>  (127) 
CHEMBL2815

>  <Target Name>  (127) 
Nerve growth factor receptor Trk-A

>  <Target Organism>  (127) 
Homo sapiens

>  <Target Type>  (127) 
SINGLE PROTEIN

>  <Document ChEMBL ID>  (127) 
CHEMBL3639348

>  <Source Description>  (127) 
BindingDB Database

>  <Document Journal>  (127) 
nan

>  <Document Year>  (127) 
2014.0

>  <Active>  (127) 
1.0

>  <bits>  (127) 
<rdkit.DataStructs.cDataStructs.ExplicitBitVect object at 0x00000159F5493530>

>  <Group>  (127) 
G2

$$$$

     RDKit          2D

 32 36  0  0  0  0  0  0  0  0999 V2000
    7.9336   -1.1492    0.0000 C   0  0  0  0  0  0  0  0  0  0  0  0
    6.4664   -0.8373    0.0000 N   0  0  0  0  0  0  0  0  0  0  0  0
    6.0029    0.5893    0.0000 C   0  0  0  0  0  0  0  0  0  0  0  0
    4.5356    0.9012    0.0000 C   0  0  0  0  0  0  0  0  0  0  0  0
    4.0721    2.3277    0.0000 F   0  0  0  0  0  0  0  0  0  0  0  0
    3.5320   -0.2136    0.0000 C   0  0  0  0  0  0  0  0  0  0  0  0
    3.9955   -1.6402    0.0000 C   0  0  0  0  0  0  0  0  0  0  0  0
    2.9918   -2.7549    0.0000 C   0  0  0  0  0  0  0  0  0  0  0  0
    3.3037   -4.2221    0.0000 C   0  0  0  0  0  0  0  0  0  0  0  0
    2.0046   -4.9721    0.0000 C   0  0  0  0  0  0  0  0  0  0  0  0
    0.8899   -3.9684    0.0000 C   0  0  0  0  0  0  0  0  0  0  0  0
    1.5000   -2.5981    0.0000 N   0  0  0  0  0  0  0  0  0  0  0  0
    0.7500   -1.2990    0.0000 C   0  0  0  0  0  0  0  0  0  0  0  0
    1.5000    0.0000    0.0000 C   0  0  0  0  0  0  0  0  0  0  0  0
    0.7500    1.2990    0.0000 C   0  0  0  0  0  0  0  0  0  0  0  0
   -0.7500    1.2990    0.0000 N   0  0  0  0  0  0  0  0  0  0  0  0
   -1.7537    2.4138    0.0000 N   0  0  0  0  0  0  0  0  0  0  0  0
   -3.1240    1.8037    0.0000 C   0  0  0  0  0  0  0  0  0  0  0  0
   -2.9672    0.3119    0.0000 C   0  0  0  0  0  0  0  0  0  0  0  0
   -4.0819   -0.6918    0.0000 C   0  0  0  0  0  0  0  0  0  0  0  0
   -3.7701   -2.1590    0.0000 O   0  0  0  0  0  0  0  0  0  0  0  0
   -5.5085   -0.2283    0.0000 N   0  0  0  0  0  0  0  0  0  0  0  0
   -6.6232   -1.2320    0.0000 C   0  0  0  0  0  0  0  0  0  0  0  0
   -8.0498   -0.7685    0.0000 C   0  0  0  0  0  0  0  0  0  0  0  0
   -9.1645   -1.7722    0.0000 C   0  0  0  0  0  0  0  0  0  0  0  0
   -8.8527   -3.2394    0.0000 C   0  0  0  0  0  0  0  0  0  0  0  0
   -7.4261   -3.7029    0.0000 N   0  0  0  0  0  0  0  0  0  0  0  0
   -6.3114   -2.6992    0.0000 C   0  0  0  0  0  0  0  0  0  0  0  0
   -1.5000    0.0000    0.0000 C   0  0  0  0  0  0  0  0  0  0  0  0
   -0.7500   -1.2990    0.0000 N   0  0  0  0  0  0  0  0  0  0  0  0
    5.4627   -1.9520    0.0000 C   0  0  0  0  0  0  0  0  0  0  0  0
    5.9262   -3.3786    0.0000 O   0  0  0  0  0  0  0  0  0  0  0  0
  1  2  1  0
  2  3  1  0
  3  4  2  0
  4  5  1  0
  4  6  1  0
  6  7  2  0
  8  7  1  1
  8  9  1  0
  9 10  1  0
 10 11  1  0
 11 12  1  0
 12 13  1  0
 13 14  1  0
 14 15  2  0
 15 16  1  0
 16 17  1  0
 17 18  2  0
 18 19  1  0
 19 20  1  0
 20 21  2  0
 20 22  1  0
 22 23  1  0
 23 24  2  0
 24 25  1  0
 25 26  2  0
 26 27  1  0
 27 28  2  0
 19 29  2  0
 29 30  1  0
  7 31  1  0
 31 32  2  0
 31  2  1  0
 12  8  1  0
 30 13  2  0
 29 16  1  0
 28 23  1  0
M  END
>  <Compound_ID>  (128) 
CHEMBL3676093

>  <Molecule Name>  (128) 
nan

>  <Molecular Weight>  (128) 
433.45

>  <AlogP>  (128) 
2.56

>  <Smiles>  (128) 
Cn1cc(F)cc([C@H]2CCCN2c2ccn3ncc(C(=O)Nc4cccnc4)c3n2)c1=O

>  <Standard Type>  (128) 
IC50

>  <Standard Relation>  (128) 
'='

>  <Standard Units>  (128) 
nM

>  <Standard Value>  (128) 
8.7

>  <Assay ChEMBL ID>  (128) 
CHEMBL3887070

>  <Assay Description>  (128) 
ELISA Assay: An enzyme-linked immunosorbant assay (ELISA) was used to assess TrkA kinase activity in the presence of inhibitors. Immulon 4HBX 384-well microtiter plates (Thermo part #8755) were coated with a 0.025 mg/mL solution of poly (Glu, Ala, Tyr; 6:3:1; Sigma P3899). Various concentrations of test compound, 2.5 nM TrkA (Invitrogen Corp., histidine-tagged recombinant human TrkA, cytoplasmic domain), and 500 uM ATP were incubated for 25 minutes at ambient temperature in the coated plates while shaking The assay buffer consisted of 25 mM MOPS pH 7.5, 0.005% (v/v) Triton X-100 and 5 mM MgCl2. The reaction mixture was removed from the plate by washing with PBS containing 0.1% (v/v) Tween 20. The phosphorylated reaction product was detected using 0.2 ug/mL of a phosphotyrosine specific monoclonal antibody (clone PY20) conjugated to horseradish peroxidase in conjunction with the TMB Peroxidase Substrate System (KPL).

>  <BAO Format ID>  (128) 
BAO_0000357

>  <BAO Label>  (128) 
single protein format

>  <Assay Organism>  (128) 
None

>  <Target ChEMBL ID>  (128) 
CHEMBL2815

>  <Target Name>  (128) 
Nerve growth factor receptor Trk-A

>  <Target Organism>  (128) 
Homo sapiens

>  <Target Type>  (128) 
SINGLE PROTEIN

>  <Document ChEMBL ID>  (128) 
CHEMBL3638907

>  <Source Description>  (128) 
BindingDB Database

>  <Document Journal>  (128) 
nan

>  <Document Year>  (128) 
2014.0

>  <Active>  (128) 
1.0

>  <bits>  (128) 
<rdkit.DataStructs.cDataStructs.ExplicitBitVect object at 0x00000159F5493060>

>  <Group>  (128) 
G2

$$$$

     RDKit          2D

 33 36  0  0  0  0  0  0  0  0999 V2000
   -2.1766   -4.6157    0.0000 C   0  0  0  0  0  0  0  0  0  0  0  0
   -2.6401   -3.1891    0.0000 C   0  0  0  0  0  0  0  0  0  0  0  0
   -3.1036   -1.7626    0.0000 C   0  0  0  0  0  0  0  0  0  0  0  0
   -4.0667   -3.6527    0.0000 C   0  0  0  0  0  0  0  0  0  0  0  0
   -5.1814   -2.6490    0.0000 O   0  0  0  0  0  0  0  0  0  0  0  0
   -1.2135   -2.7256    0.0000 N   0  0  0  0  0  0  0  0  0  0  0  0
   -0.0000   -3.6073    0.0000 C   0  0  0  0  0  0  0  0  0  0  0  0
    1.2135   -2.7256    0.0000 C   0  0  0  0  0  0  0  0  0  0  0  0
    2.6401   -3.1891    0.0000 C   0  0  0  0  0  0  0  0  0  0  0  0
    3.7548   -2.1855    0.0000 O   0  0  0  0  0  0  0  0  0  0  0  0
    2.9520   -4.6564    0.0000 C   0  0  0  0  0  0  0  0  0  0  0  0
    1.8373   -5.6601    0.0000 C   0  0  0  0  0  0  0  0  0  0  0  0
    2.1491   -7.1273    0.0000 N   0  0  0  0  0  0  0  0  0  0  0  0
    3.5757   -7.5908    0.0000 C   0  0  0  0  0  0  0  0  0  0  0  0
    4.6904   -6.5871    0.0000 C   0  0  0  0  0  0  0  0  0  0  0  0
    6.1170   -7.0506    0.0000 N   0  0  0  0  0  0  0  0  0  0  0  0
    6.4289   -8.5179    0.0000 C   0  0  0  0  0  0  0  0  0  0  0  0
    5.3142   -9.5216    0.0000 O   0  0  0  0  0  0  0  0  0  0  0  0
    7.8555   -8.9814    0.0000 C   0  0  0  0  0  0  0  0  0  0  0  0
    8.1673  -10.4486    0.0000 C   0  0  0  0  0  0  0  0  0  0  0  0
    7.0526  -11.4523    0.0000 C   0  0  0  0  0  0  0  0  0  0  0  0
    7.3645  -12.9195    0.0000 C   0  0  0  0  0  0  0  0  0  0  0  0
    8.7911  -13.3831    0.0000 C   0  0  0  0  0  0  0  0  0  0  0  0
    9.1029  -14.8503    0.0000 Cl  0  0  0  0  0  0  0  0  0  0  0  0
    9.9058  -12.3794    0.0000 C   0  0  0  0  0  0  0  0  0  0  0  0
    9.5939  -10.9121    0.0000 N   0  0  0  0  0  0  0  0  0  0  0  0
    4.3786   -5.1199    0.0000 C   0  0  0  0  0  0  0  0  0  0  0  0
    0.7500   -1.2990    0.0000 C   0  0  0  0  0  0  0  0  0  0  0  0
    1.5000    0.0000    0.0000 C   0  0  0  0  0  0  0  0  0  0  0  0
    0.7500    1.2990    0.0000 N   0  0  0  0  0  0  0  0  0  0  0  0
   -0.7500    1.2990    0.0000 C   0  0  0  0  0  0  0  0  0  0  0  0
   -1.5000    0.0000    0.0000 C   0  0  0  0  0  0  0  0  0  0  0  0
   -0.7500   -1.2990    0.0000 C   0  0  0  0  0  0  0  0  0  0  0  0
  1  2  1  0
  2  3  1  0
  2  4  1  0
  4  5  1  0
  2  6  1  0
  6  7  1  0
  7  8  2  0
  8  9  1  0
  9 10  2  0
  9 11  1  0
 11 12  2  0
 12 13  1  0
 13 14  2  0
 14 15  1  0
 15 16  1  0
 16 17  1  0
 17 18  2  0
 17 19  1  0
 19 20  1  0
 20 21  2  0
 21 22  1  0
 22 23  2  0
 23 24  1  0
 23 25  1  0
 25 26  2  0
 15 27  2  0
  8 28  1  0
 28 29  2  0
 29 30  1  0
 30 31  2  0
 31 32  1  0
 32 33  2  0
 33  6  1  0
 27 11  1  0
 33 28  1  0
 26 20  1  0
M  END
>  <Compound_ID>  (129) 
CHEMBL3946332

>  <Molecule Name>  (129) 
nan

>  <Molecular Weight>  (129) 
463.93

>  <AlogP>  (129) 
3.62

>  <Smiles>  (129) 
CC(C)(CO)n1cc(C(=O)c2cncc(NC(=O)Cc3ccc(Cl)cn3)c2)c2cnccc21

>  <Standard Type>  (129) 
IC50

>  <Standard Relation>  (129) 
'='

>  <Standard Units>  (129) 
nM

>  <Standard Value>  (129) 
38.5

>  <Assay ChEMBL ID>  (129) 
CHEMBL3887111

>  <Assay Description>  (129) 
HTRF Assay: Isolated TRK Enzyme assays use the HTRF KinEASE-TK kit (Cisbio Cat#62TK0PEJ) with recombinant His-tagged cytoplasmic domains of each TRK receptor sourced from Invitrogen (see table below). This activity-assay measures the phosphorylation of tyrosine residues within a substrate from the HTRF kit which has been validated by Cisbio for a variety of tyrosine kinases including the TRK receptors.Assay Details: Invitrogen Amino FAC FAC Assay ReactionTarget Cat# acids enzyme ATP TimeTRKA PV3144 aa 441-4 nM 40 uM 35 min (NTRK1) 796 TRKB PV3616 aa 526-1 nM 1.4 uM 40 min (NTRK2) 838 TRKC PV3617 aa 510- 10 nM 15 uM 30 min (NTRK3) 8250.5 mM stock solutions of test compounds are prepared and serially diluted in 100% DMSO. A standard curve using the compound of Example 135 disclosed in WO2005/116035 of 150 uM is also prepared on each test plate. High percentage effect (HPE) is defined by 150 uM.

>  <BAO Format ID>  (129) 
BAO_0000357

>  <BAO Label>  (129) 
single protein format

>  <Assay Organism>  (129) 
None

>  <Target ChEMBL ID>  (129) 
CHEMBL2815

>  <Target Name>  (129) 
Nerve growth factor receptor Trk-A

>  <Target Organism>  (129) 
Homo sapiens

>  <Target Type>  (129) 
SINGLE PROTEIN

>  <Document ChEMBL ID>  (129) 
CHEMBL3886170

>  <Source Description>  (129) 
BindingDB Database

>  <Document Journal>  (129) 
nan

>  <Document Year>  (129) 
2015.0

>  <Active>  (129) 
1.0

>  <bits>  (129) 
<rdkit.DataStructs.cDataStructs.ExplicitBitVect object at 0x00000159F5490DD0>

>  <Group>  (129) 
G2

$$$$

     RDKit          2D

 29 32  0  0  0  0  0  0  0  0999 V2000
   -1.8373   -5.6601    0.0000 O   0  0  0  0  0  0  0  0  0  0  0  0
   -2.9520   -4.6564    0.0000 C   0  0  0  0  0  0  0  0  0  0  0  0
   -2.6401   -3.1891    0.0000 N   0  0  0  0  0  0  0  0  0  0  0  0
   -1.2135   -2.7256    0.0000 C   0  0  0  0  0  0  0  0  0  0  0  0
   -0.0000   -3.6073    0.0000 C   0  0  0  0  0  0  0  0  0  0  0  0
    1.2135   -2.7256    0.0000 N   0  0  0  0  0  0  0  0  0  0  0  0
    0.7500   -1.2990    0.0000 C   0  0  0  0  0  0  0  0  0  0  0  0
    1.5000    0.0000    0.0000 C   0  0  0  0  0  0  0  0  0  0  0  0
    0.7500    1.2990    0.0000 C   0  0  0  0  0  0  0  0  0  0  0  0
   -0.7500    1.2990    0.0000 C   0  0  0  0  0  0  0  0  0  0  0  0
   -1.5000    2.5981    0.0000 N   0  0  0  0  0  0  0  0  0  0  0  0
   -2.9918    2.7549    0.0000 C   0  0  0  0  0  0  0  0  0  0  0  0
   -3.3037    4.2221    0.0000 C   0  0  0  0  0  0  0  0  0  0  0  0
   -2.0046    4.9721    0.0000 C   0  0  0  0  0  0  0  0  0  0  0  0
   -0.8899    3.9684    0.0000 C   0  0  0  0  0  0  0  0  0  0  0  0
    0.5773    4.2803    0.0000 C   0  0  0  0  0  0  0  0  0  0  0  0
    1.5810    3.1655    0.0000 C   0  0  0  0  0  0  0  0  0  0  0  0
    3.0482    3.4774    0.0000 C   0  0  0  0  0  0  0  0  0  0  0  0
    4.0519    2.3627    0.0000 F   0  0  0  0  0  0  0  0  0  0  0  0
    3.5118    4.9040    0.0000 C   0  0  0  0  0  0  0  0  0  0  0  0
    2.5081    6.0187    0.0000 C   0  0  0  0  0  0  0  0  0  0  0  0
    1.0409    5.7068    0.0000 C   0  0  0  0  0  0  0  0  0  0  0  0
    0.0372    6.8216    0.0000 F   0  0  0  0  0  0  0  0  0  0  0  0
   -1.5000    0.0000    0.0000 N   0  0  0  0  0  0  0  0  0  0  0  0
   -0.7500   -1.2990    0.0000 N   0  0  0  0  0  0  0  0  0  0  0  0
   -4.3786   -5.1199    0.0000 C   0  0  0  0  0  0  0  0  0  0  0  0
   -5.8051   -5.5834    0.0000 F   0  0  0  0  0  0  0  0  0  0  0  0
   -3.9150   -6.5465    0.0000 F   0  0  0  0  0  0  0  0  0  0  0  0
   -4.8421   -3.6933    0.0000 F   0  0  0  0  0  0  0  0  0  0  0  0
  1  2  2  0
  2  3  1  0
  3  4  1  0
  4  5  2  0
  5  6  1  0
  6  7  2  0
  7  8  1  0
  8  9  2  0
  9 10  1  0
 10 11  1  0
 11 12  1  0
 12 13  1  0
 13 14  1  0
 14 15  1  0
 15 16  1  6
 16 17  2  0
 17 18  1  0
 18 19  1  0
 18 20  2  0
 20 21  1  0
 21 22  2  0
 22 23  1  0
 10 24  2  0
 24 25  1  0
  2 26  1  0
 26 27  1  0
 26 28  1  0
 26 29  1  0
 25  4  1  0
 25  7  1  0
 15 11  1  0
 22 16  1  0
M  END
>  <Compound_ID>  (130) 
CHEMBL4110128

>  <Molecule Name>  (130) 
nan

>  <Molecular Weight>  (130) 
411.33

>  <AlogP>  (130) 
3.85

>  <Smiles>  (130) 
O=C(Nc1cnc2ccc(N3CCC[C@@H]3c3cc(F)ccc3F)nn12)C(F)(F)F

>  <Standard Type>  (130) 
IC50

>  <Standard Relation>  (130) 
'='

>  <Standard Units>  (130) 
nM

>  <Standard Value>  (130) 
22.0

>  <Assay ChEMBL ID>  (130) 
CHEMBL3887826

>  <Assay Description>  (130) 
ELISA Assay: An enzyme-linked immunosorbant assay (ELISA) was used to assess TrkA kinase activity in the presence of inhibitors. Immulon 4HBX 384-well microtiter plates (Thermo part #8755) were coated with a 0.025 mg/mL solution of poly (Glu, Ala, Tyr; 6:3:1; Sigma P3899). Various concentrations of test compound, 2.5 nM TrkA (Invitrogen Corp., histidine-tagged recombinant human TrkA, cytoplasmic domain), and 500 uM ATP were incubated for 25 minutes at ambient temperature in the coated plates while shaking. The assay buffer consisted of 25 mM MOPS pH 7.5, 0.005% (v/v) Triton X-100 and 5 mM MgCl2. The reaction mixture was removed from the plate by washing with PBS containing 0.1% (v/v) Tween 20. The phosphorylated reaction product was detected using 0.2 ug/mL of a phosphotyrosine specific monoclonal antibody (clone PY20) conjugated to horseradish peroxidase in conjunction with the TMB Peroxidase Substrate System (KPL).

>  <BAO Format ID>  (130) 
BAO_0000357

>  <BAO Label>  (130) 
single protein format

>  <Assay Organism>  (130) 
None

>  <Target ChEMBL ID>  (130) 
CHEMBL2815

>  <Target Name>  (130) 
Nerve growth factor receptor Trk-A

>  <Target Organism>  (130) 
Homo sapiens

>  <Target Type>  (130) 
SINGLE PROTEIN

>  <Document ChEMBL ID>  (130) 
CHEMBL3886465

>  <Source Description>  (130) 
BindingDB Database

>  <Document Journal>  (130) 
nan

>  <Document Year>  (130) 
2016.0

>  <Active>  (130) 
1.0

>  <bits>  (130) 
<rdkit.DataStructs.cDataStructs.ExplicitBitVect object at 0x00000159F54905F0>

>  <Group>  (130) 
G2

$$$$

     RDKit          2D

 32 36  0  0  0  0  0  0  0  0999 V2000
    7.3934   -3.6905    0.0000 C   0  0  0  0  0  0  0  0  0  0  0  0
    5.9262   -3.3786    0.0000 C   0  0  0  0  0  0  0  0  0  0  0  0
    5.4627   -1.9520    0.0000 C   0  0  0  0  0  0  0  0  0  0  0  0
    6.4664   -0.8373    0.0000 N   0  0  0  0  0  0  0  0  0  0  0  0
    6.0029    0.5893    0.0000 C   0  0  0  0  0  0  0  0  0  0  0  0
    4.5356    0.9012    0.0000 C   0  0  0  0  0  0  0  0  0  0  0  0
    4.0721    2.3277    0.0000 F   0  0  0  0  0  0  0  0  0  0  0  0
    3.5320   -0.2136    0.0000 C   0  0  0  0  0  0  0  0  0  0  0  0
    3.9955   -1.6402    0.0000 C   0  0  0  0  0  0  0  0  0  0  0  0
    2.9918   -2.7549    0.0000 C   0  0  0  0  0  0  0  0  0  0  0  0
    3.3037   -4.2221    0.0000 C   0  0  0  0  0  0  0  0  0  0  0  0
    2.0046   -4.9721    0.0000 C   0  0  0  0  0  0  0  0  0  0  0  0
    0.8899   -3.9684    0.0000 C   0  0  0  0  0  0  0  0  0  0  0  0
    1.5000   -2.5981    0.0000 N   0  0  0  0  0  0  0  0  0  0  0  0
    0.7500   -1.2990    0.0000 C   0  0  0  0  0  0  0  0  0  0  0  0
    1.5000    0.0000    0.0000 C   0  0  0  0  0  0  0  0  0  0  0  0
    0.7500    1.2990    0.0000 C   0  0  0  0  0  0  0  0  0  0  0  0
   -0.7500    1.2990    0.0000 N   0  0  0  0  0  0  0  0  0  0  0  0
   -1.7537    2.4138    0.0000 N   0  0  0  0  0  0  0  0  0  0  0  0
   -3.1240    1.8037    0.0000 C   0  0  0  0  0  0  0  0  0  0  0  0
   -2.9672    0.3119    0.0000 C   0  0  0  0  0  0  0  0  0  0  0  0
   -4.0819   -0.6918    0.0000 C   0  0  0  0  0  0  0  0  0  0  0  0
   -3.7701   -2.1590    0.0000 O   0  0  0  0  0  0  0  0  0  0  0  0
   -5.5085   -0.2283    0.0000 N   0  0  0  0  0  0  0  0  0  0  0  0
   -6.6232   -1.2320    0.0000 C   0  0  0  0  0  0  0  0  0  0  0  0
   -6.4664   -2.7238    0.0000 C   0  0  0  0  0  0  0  0  0  0  0  0
   -7.8368   -3.3339    0.0000 C   0  0  0  0  0  0  0  0  0  0  0  0
   -8.8405   -2.2192    0.0000 C   0  0  0  0  0  0  0  0  0  0  0  0
  -10.3322   -2.3760    0.0000 O   0  0  0  0  0  0  0  0  0  0  0  0
   -8.0905   -0.9201    0.0000 C   0  0  0  0  0  0  0  0  0  0  0  0
   -1.5000    0.0000    0.0000 C   0  0  0  0  0  0  0  0  0  0  0  0
   -0.7500   -1.2990    0.0000 N   0  0  0  0  0  0  0  0  0  0  0  0
  1  2  1  0
  2  3  1  0
  3  4  2  0
  4  5  1  0
  5  6  2  0
  6  7  1  0
  6  8  1  0
  8  9  2  0
  9 10  1  0
 10 11  1  0
 11 12  1  0
 12 13  1  0
 13 14  1  0
 14 15  1  0
 15 16  1  0
 16 17  2  0
 17 18  1  0
 18 19  1  0
 19 20  2  0
 20 21  1  0
 21 22  1  0
 22 23  2  0
 22 24  1  0
 25 24  1  1
 25 26  1  0
 26 27  1  0
 27 28  1  0
 28 29  1  6
 28 30  1  0
 21 31  2  0
 31 32  1  0
  9  3  1  0
 14 10  1  0
 32 15  2  0
 31 18  1  0
 30 25  1  0
M  END
>  <Compound_ID>  (131) 
CHEMBL3676067

>  <Molecule Name>  (131) 
nan

>  <Molecular Weight>  (131) 
438.51

>  <AlogP>  (131) 
2.81

>  <Smiles>  (131) 
CCc1ncc(F)cc1C1CCCN1c1ccn2ncc(C(=O)N[C@H]3CC[C@H](O)C3)c2n1

>  <Standard Type>  (131) 
IC50

>  <Standard Relation>  (131) 
'='

>  <Standard Units>  (131) 
nM

>  <Standard Value>  (131) 
12.7

>  <Assay ChEMBL ID>  (131) 
CHEMBL3887070

>  <Assay Description>  (131) 
ELISA Assay: An enzyme-linked immunosorbant assay (ELISA) was used to assess TrkA kinase activity in the presence of inhibitors. Immulon 4HBX 384-well microtiter plates (Thermo part #8755) were coated with a 0.025 mg/mL solution of poly (Glu, Ala, Tyr; 6:3:1; Sigma P3899). Various concentrations of test compound, 2.5 nM TrkA (Invitrogen Corp., histidine-tagged recombinant human TrkA, cytoplasmic domain), and 500 uM ATP were incubated for 25 minutes at ambient temperature in the coated plates while shaking The assay buffer consisted of 25 mM MOPS pH 7.5, 0.005% (v/v) Triton X-100 and 5 mM MgCl2. The reaction mixture was removed from the plate by washing with PBS containing 0.1% (v/v) Tween 20. The phosphorylated reaction product was detected using 0.2 ug/mL of a phosphotyrosine specific monoclonal antibody (clone PY20) conjugated to horseradish peroxidase in conjunction with the TMB Peroxidase Substrate System (KPL).

>  <BAO Format ID>  (131) 
BAO_0000357

>  <BAO Label>  (131) 
single protein format

>  <Assay Organism>  (131) 
None

>  <Target ChEMBL ID>  (131) 
CHEMBL2815

>  <Target Name>  (131) 
Nerve growth factor receptor Trk-A

>  <Target Organism>  (131) 
Homo sapiens

>  <Target Type>  (131) 
SINGLE PROTEIN

>  <Document ChEMBL ID>  (131) 
CHEMBL3638907

>  <Source Description>  (131) 
BindingDB Database

>  <Document Journal>  (131) 
nan

>  <Document Year>  (131) 
2014.0

>  <Active>  (131) 
1.0

>  <bits>  (131) 
<rdkit.DataStructs.cDataStructs.ExplicitBitVect object at 0x00000159F5493840>

>  <Group>  (131) 
G2

$$$$

     RDKit          2D

 33 36  0  0  0  0  0  0  0  0999 V2000
   -2.6401   -3.1891    0.0000 C   0  0  0  0  0  0  0  0  0  0  0  0
   -1.2135   -2.7256    0.0000 N   0  0  0  0  0  0  0  0  0  0  0  0
   -0.0000   -3.6073    0.0000 C   0  0  0  0  0  0  0  0  0  0  0  0
    1.2135   -2.7256    0.0000 C   0  0  0  0  0  0  0  0  0  0  0  0
    2.6401   -3.1891    0.0000 C   0  0  0  0  0  0  0  0  0  0  0  0
    3.7548   -2.1855    0.0000 O   0  0  0  0  0  0  0  0  0  0  0  0
    2.9520   -4.6564    0.0000 C   0  0  0  0  0  0  0  0  0  0  0  0
    1.8373   -5.6601    0.0000 C   0  0  0  0  0  0  0  0  0  0  0  0
    2.1491   -7.1273    0.0000 N   0  0  0  0  0  0  0  0  0  0  0  0
    3.5757   -7.5908    0.0000 C   0  0  0  0  0  0  0  0  0  0  0  0
    4.6904   -6.5871    0.0000 C   0  0  0  0  0  0  0  0  0  0  0  0
    6.1170   -7.0506    0.0000 N   0  0  0  0  0  0  0  0  0  0  0  0
    6.4289   -8.5179    0.0000 C   0  0  0  0  0  0  0  0  0  0  0  0
    5.3142   -9.5216    0.0000 O   0  0  0  0  0  0  0  0  0  0  0  0
    7.8555   -8.9814    0.0000 N   0  0  0  0  0  0  0  0  0  0  0  0
    8.1673  -10.4486    0.0000 C   0  0  0  0  0  0  0  0  0  0  0  0
    7.0526  -11.4523    0.0000 C   0  0  0  0  0  0  0  0  0  0  0  0
    7.3645  -12.9195    0.0000 C   0  0  0  0  0  0  0  0  0  0  0  0
    8.7911  -13.3831    0.0000 C   0  0  0  0  0  0  0  0  0  0  0  0
    9.1029  -14.8503    0.0000 O   0  0  0  0  0  0  0  0  0  0  0  0
    7.9882  -15.8540    0.0000 C   0  0  0  0  0  0  0  0  0  0  0  0
    6.8735  -16.8577    0.0000 F   0  0  0  0  0  0  0  0  0  0  0  0
    8.9919  -16.9687    0.0000 F   0  0  0  0  0  0  0  0  0  0  0  0
    6.9845  -14.7393    0.0000 F   0  0  0  0  0  0  0  0  0  0  0  0
    9.9058  -12.3794    0.0000 C   0  0  0  0  0  0  0  0  0  0  0  0
    9.5939  -10.9121    0.0000 C   0  0  0  0  0  0  0  0  0  0  0  0
    4.3786   -5.1199    0.0000 C   0  0  0  0  0  0  0  0  0  0  0  0
    0.7500   -1.2990    0.0000 C   0  0  0  0  0  0  0  0  0  0  0  0
    1.5000    0.0000    0.0000 C   0  0  0  0  0  0  0  0  0  0  0  0
    0.7500    1.2990    0.0000 N   0  0  0  0  0  0  0  0  0  0  0  0
   -0.7500    1.2990    0.0000 C   0  0  0  0  0  0  0  0  0  0  0  0
   -1.5000    0.0000    0.0000 N   0  0  0  0  0  0  0  0  0  0  0  0
   -0.7500   -1.2990    0.0000 C   0  0  0  0  0  0  0  0  0  0  0  0
  1  2  1  0
  2  3  1  0
  3  4  2  0
  4  5  1  0
  5  6  2  0
  5  7  1  0
  7  8  2  0
  8  9  1  0
  9 10  2  0
 10 11  1  0
 11 12  1  0
 12 13  1  0
 13 14  2  0
 13 15  1  0
 15 16  1  0
 16 17  2  0
 17 18  1  0
 18 19  2  0
 19 20  1  0
 20 21  1  0
 21 22  1  0
 21 23  1  0
 21 24  1  0
 19 25  1  0
 25 26  2  0
 11 27  2  0
  4 28  1  0
 28 29  2  0
 29 30  1  0
 30 31  2  0
 31 32  1  0
 32 33  2  0
 33  2  1  0
 27  7  1  0
 33 28  1  0
 26 16  1  0
M  END
>  <Compound_ID>  (132) 
CHEMBL3666295

>  <Molecule Name>  (132) 
nan

>  <Molecular Weight>  (132) 
456.38

>  <AlogP>  (132) 
4.14

>  <Smiles>  (132) 
Cn1cc(C(=O)c2cncc(NC(=O)Nc3ccc(OC(F)(F)F)cc3)c2)c2cncnc21

>  <Standard Type>  (132) 
IC50

>  <Standard Relation>  (132) 
'='

>  <Standard Units>  (132) 
nM

>  <Standard Value>  (132) 
47.7

>  <Assay ChEMBL ID>  (132) 
CHEMBL3887033

>  <Assay Description>  (132) 
Enzyme Assay: Isolated TRK Enzyme assays use the HTRF KinEASE-TK kit (Cisbio Cat# 62TK0PEJ) with recombinant His-tagged cytoplasmic domains of each TRK receptor sourced from Invitrogen (see table below). This activity-assay measures the phosphorylation of tyrosine residues within a substrate from the HTRF kit which has been validated by Cisbio for a variety of tyrosine kinases including the TRK receptors. Assay details: Target:TRKA; Invitrogen Cat# PV3144; Amino acids:aa 441-796; FAC enzyme:4nM; FAC ATP:40uM; Assay Reaction Time:35min.

>  <BAO Format ID>  (132) 
BAO_0000357

>  <BAO Label>  (132) 
single protein format

>  <Assay Organism>  (132) 
None

>  <Target ChEMBL ID>  (132) 
CHEMBL2815

>  <Target Name>  (132) 
Nerve growth factor receptor Trk-A

>  <Target Organism>  (132) 
Homo sapiens

>  <Target Type>  (132) 
SINGLE PROTEIN

>  <Document ChEMBL ID>  (132) 
CHEMBL3639348

>  <Source Description>  (132) 
BindingDB Database

>  <Document Journal>  (132) 
nan

>  <Document Year>  (132) 
2014.0

>  <Active>  (132) 
1.0

>  <bits>  (132) 
<rdkit.DataStructs.cDataStructs.ExplicitBitVect object at 0x00000159F53A4350>

>  <Group>  (132) 
G2

$$$$

     RDKit          2D

 24 25  0  0  0  0  0  0  0  0999 V2000
    6.0000   -2.5981    0.0000 C   0  0  0  0  0  0  0  0  0  0  0  0
    5.2500   -1.2990    0.0000 C   0  0  0  0  0  0  0  0  0  0  0  0
    3.7500   -1.2990    0.0000 C   0  0  0  0  0  0  0  0  0  0  0  0
    3.0000   -2.5981    0.0000 S   0  0  0  0  0  0  0  0  0  0  0  0
    3.7500   -3.8971    0.0000 C   0  0  0  0  0  0  0  0  0  0  0  0
    5.2418   -4.0539    0.0000 N   0  0  0  0  0  0  0  0  0  0  0  0
    5.5537   -5.5211    0.0000 S   0  0  0  0  0  0  0  0  0  0  0  0
    4.2546   -6.2711    0.0000 C   0  0  0  0  0  0  0  0  0  0  0  0
    4.0978   -7.7629    0.0000 N   0  0  0  0  0  0  0  0  0  0  0  0
    5.3113   -8.6446    0.0000 C   0  0  0  0  0  0  0  0  0  0  0  0
    6.6817   -8.0345    0.0000 O   0  0  0  0  0  0  0  0  0  0  0  0
    5.1546  -10.1364    0.0000 N   0  0  0  0  0  0  0  0  0  0  0  0
    6.3681  -11.0180    0.0000 C   0  0  0  0  0  0  0  0  0  0  0  0
    3.1399   -5.2674    0.0000 C   0  0  0  0  0  0  0  0  0  0  0  0
    1.6727   -5.5793    0.0000 C   0  0  0  0  0  0  0  0  0  0  0  0
    0.6690   -4.4646    0.0000 N   0  0  0  0  0  0  0  0  0  0  0  0
    1.2091   -7.0059    0.0000 O   0  0  0  0  0  0  0  0  0  0  0  0
    3.0000   -0.0000    0.0000 C   0  0  0  0  0  0  0  0  0  0  0  0
    1.5000    0.0000    0.0000 C   0  0  0  0  0  0  0  0  0  0  0  0
    0.7500    1.2990    0.0000 C   0  0  0  0  0  0  0  0  0  0  0  0
    1.5000    2.5981    0.0000 C   0  0  0  0  0  0  0  0  0  0  0  0
    0.7500    3.8971    0.0000 Cl  0  0  0  0  0  0  0  0  0  0  0  0
    3.0000    2.5981    0.0000 C   0  0  0  0  0  0  0  0  0  0  0  0
    3.7500    1.2990    0.0000 C   0  0  0  0  0  0  0  0  0  0  0  0
  1  2  1  0
  2  3  1  0
  3  4  1  0
  4  5  1  0
  5  6  2  0
  6  7  1  0
  7  8  1  0
  8  9  1  0
  9 10  1  0
 10 11  2  0
 10 12  1  0
 12 13  1  0
  8 14  2  0
 14 15  1  0
 15 16  1  0
 15 17  2  0
  3 18  1  0
 18 19  2  0
 19 20  1  0
 20 21  2  0
 21 22  1  0
 21 23  1  0
 23 24  2  0
 14  5  1  0
 24 18  1  0
M  END
>  <Compound_ID>  (133) 
CHEMBL425066

>  <Molecule Name>  (133) 
nan

>  <Molecular Weight>  (133) 
384.91

>  <AlogP>  (133) 
3.89

>  <Smiles>  (133) 
CCC(Sc1nsc(NC(=O)NC)c1C(N)=O)c1ccc(Cl)cc1

>  <Standard Type>  (133) 
IC50

>  <Standard Relation>  (133) 
'='

>  <Standard Units>  (133) 
nM

>  <Standard Value>  (133) 
9.0

>  <Assay ChEMBL ID>  (133) 
CHEMBL867240

>  <Assay Description>  (133) 
Inhibition of TrkA kinase

>  <BAO Format ID>  (133) 
BAO_0000357

>  <BAO Label>  (133) 
single protein format

>  <Assay Organism>  (133) 
Homo sapiens

>  <Target ChEMBL ID>  (133) 
CHEMBL2815

>  <Target Name>  (133) 
Nerve growth factor receptor Trk-A

>  <Target Organism>  (133) 
Homo sapiens

>  <Target Type>  (133) 
SINGLE PROTEIN

>  <Document ChEMBL ID>  (133) 
CHEMBL1138090

>  <Source Description>  (133) 
Scientific Literature

>  <Document Journal>  (133) 
Bioorg Med Chem Lett

>  <Document Year>  (133) 
2006.0

>  <Active>  (133) 
1.0

>  <bits>  (133) 
<rdkit.DataStructs.cDataStructs.ExplicitBitVect object at 0x00000159F53A4510>

>  <Group>  (133) 
G2

$$$$

     RDKit          2D

 35 39  0  0  0  0  0  0  0  0999 V2000
   -2.1766   -4.6157    0.0000 C   0  0  0  0  0  0  0  0  0  0  0  0
   -2.6401   -3.1891    0.0000 C   0  0  0  0  0  0  0  0  0  0  0  0
   -3.1036   -1.7626    0.0000 C   0  0  0  0  0  0  0  0  0  0  0  0
   -4.0667   -3.6527    0.0000 C   0  0  0  0  0  0  0  0  0  0  0  0
   -5.1814   -2.6490    0.0000 O   0  0  0  0  0  0  0  0  0  0  0  0
   -1.2135   -2.7256    0.0000 N   0  0  0  0  0  0  0  0  0  0  0  0
   -0.0000   -3.6073    0.0000 C   0  0  0  0  0  0  0  0  0  0  0  0
    1.2135   -2.7256    0.0000 C   0  0  0  0  0  0  0  0  0  0  0  0
    2.6401   -3.1891    0.0000 C   0  0  0  0  0  0  0  0  0  0  0  0
    3.7548   -2.1855    0.0000 O   0  0  0  0  0  0  0  0  0  0  0  0
    2.9520   -4.6564    0.0000 C   0  0  0  0  0  0  0  0  0  0  0  0
    1.8373   -5.6601    0.0000 C   0  0  0  0  0  0  0  0  0  0  0  0
    2.1491   -7.1273    0.0000 N   0  0  0  0  0  0  0  0  0  0  0  0
    3.5757   -7.5908    0.0000 C   0  0  0  0  0  0  0  0  0  0  0  0
    4.6904   -6.5871    0.0000 C   0  0  0  0  0  0  0  0  0  0  0  0
    6.1170   -7.0506    0.0000 N   0  0  0  0  0  0  0  0  0  0  0  0
    6.4289   -8.5179    0.0000 C   0  0  0  0  0  0  0  0  0  0  0  0
    5.3142   -9.5216    0.0000 O   0  0  0  0  0  0  0  0  0  0  0  0
    7.8555   -8.9814    0.0000 C   0  0  0  0  0  0  0  0  0  0  0  0
    8.1673  -10.4486    0.0000 N   0  0  0  0  0  0  0  0  0  0  0  0
    9.5377  -11.0587    0.0000 C   0  0  0  0  0  0  0  0  0  0  0  0
    9.3809  -12.5505    0.0000 C   0  0  0  0  0  0  0  0  0  0  0  0
    7.9136  -12.8624    0.0000 C   0  0  0  0  0  0  0  0  0  0  0  0
    7.3035  -14.2327    0.0000 C   0  0  0  0  0  0  0  0  0  0  0  0
    7.4603  -15.7245    0.0000 C   0  0  0  0  0  0  0  0  0  0  0  0
    6.0900  -15.1144    0.0000 C   0  0  0  0  0  0  0  0  0  0  0  0
    7.1636  -11.5633    0.0000 N   0  0  0  0  0  0  0  0  0  0  0  0
    4.3786   -5.1199    0.0000 C   0  0  0  0  0  0  0  0  0  0  0  0
    0.7500   -1.2990    0.0000 C   0  0  0  0  0  0  0  0  0  0  0  0
    1.5000    0.0000    0.0000 C   0  0  0  0  0  0  0  0  0  0  0  0
    0.7500    1.2990    0.0000 N   0  0  0  0  0  0  0  0  0  0  0  0
   -0.7500    1.2990    0.0000 C   0  0  0  0  0  0  0  0  0  0  0  0
   -1.5000    0.0000    0.0000 C   0  0  0  0  0  0  0  0  0  0  0  0
   -3.0000    0.0000    0.0000 F   0  0  0  0  0  0  0  0  0  0  0  0
   -0.7500   -1.2990    0.0000 C   0  0  0  0  0  0  0  0  0  0  0  0
  1  2  1  0
  2  3  1  0
  2  4  1  0
  4  5  1  0
  2  6  1  0
  6  7  1  0
  7  8  2  0
  8  9  1  0
  9 10  2  0
  9 11  1  0
 11 12  2  0
 12 13  1  0
 13 14  2  0
 14 15  1  0
 15 16  1  0
 16 17  1  0
 17 18  2  0
 17 19  1  0
 19 20  1  0
 20 21  1  0
 21 22  2  0
 22 23  1  0
 23 24  1  0
 24 25  1  0
 25 26  1  0
 23 27  2  0
 15 28  2  0
  8 29  1  0
 29 30  2  0
 30 31  1  0
 31 32  2  0
 32 33  1  0
 33 34  1  0
 33 35  2  0
 35  6  1  0
 28 11  1  0
 35 29  1  0
 27 20  1  0
 26 24  1  0
M  END
>  <Compound_ID>  (134) 
CHEMBL3900180

>  <Molecule Name>  (134) 
nan

>  <Molecular Weight>  (134) 
476.51

>  <AlogP>  (134) 
3.24

>  <Smiles>  (134) 
CC(C)(CO)n1cc(C(=O)c2cncc(NC(=O)Cn3ccc(C4CC4)n3)c2)c2cncc(F)c21

>  <Standard Type>  (134) 
IC50

>  <Standard Relation>  (134) 
'='

>  <Standard Units>  (134) 
nM

>  <Standard Value>  (134) 
5.58

>  <Assay ChEMBL ID>  (134) 
CHEMBL3887111

>  <Assay Description>  (134) 
HTRF Assay: Isolated TRK Enzyme assays use the HTRF KinEASE-TK kit (Cisbio Cat#62TK0PEJ) with recombinant His-tagged cytoplasmic domains of each TRK receptor sourced from Invitrogen (see table below). This activity-assay measures the phosphorylation of tyrosine residues within a substrate from the HTRF kit which has been validated by Cisbio for a variety of tyrosine kinases including the TRK receptors.Assay Details: Invitrogen Amino FAC FAC Assay ReactionTarget Cat# acids enzyme ATP TimeTRKA PV3144 aa 441-4 nM 40 uM 35 min (NTRK1) 796 TRKB PV3616 aa 526-1 nM 1.4 uM 40 min (NTRK2) 838 TRKC PV3617 aa 510- 10 nM 15 uM 30 min (NTRK3) 8250.5 mM stock solutions of test compounds are prepared and serially diluted in 100% DMSO. A standard curve using the compound of Example 135 disclosed in WO2005/116035 of 150 uM is also prepared on each test plate. High percentage effect (HPE) is defined by 150 uM.

>  <BAO Format ID>  (134) 
BAO_0000357

>  <BAO Label>  (134) 
single protein format

>  <Assay Organism>  (134) 
None

>  <Target ChEMBL ID>  (134) 
CHEMBL2815

>  <Target Name>  (134) 
Nerve growth factor receptor Trk-A

>  <Target Organism>  (134) 
Homo sapiens

>  <Target Type>  (134) 
SINGLE PROTEIN

>  <Document ChEMBL ID>  (134) 
CHEMBL3886170

>  <Source Description>  (134) 
BindingDB Database

>  <Document Journal>  (134) 
nan

>  <Document Year>  (134) 
2015.0

>  <Active>  (134) 
1.0

>  <bits>  (134) 
<rdkit.DataStructs.cDataStructs.ExplicitBitVect object at 0x00000159F53A4120>

>  <Group>  (134) 
G2

$$$$

     RDKit          2D

 33 36  0  0  0  0  0  0  0  0999 V2000
   -1.0896  -10.5178    0.0000 C   0  0  0  0  0  0  0  0  0  0  0  0
    0.4022  -10.3610    0.0000 C   0  0  0  0  0  0  0  0  0  0  0  0
    1.8940  -10.2042    0.0000 C   0  0  0  0  0  0  0  0  0  0  0  0
    0.5590  -11.8528    0.0000 C   0  0  0  0  0  0  0  0  0  0  0  0
    0.2454   -8.8692    0.0000 C   0  0  0  0  0  0  0  0  0  0  0  0
    1.3601   -7.8655    0.0000 C   0  0  0  0  0  0  0  0  0  0  0  0
    0.7500   -6.4952    0.0000 C   0  0  0  0  0  0  0  0  0  0  0  0
    1.5000   -5.1962    0.0000 N   0  0  0  0  0  0  0  0  0  0  0  0
    0.7500   -3.8971    0.0000 C   0  0  0  0  0  0  0  0  0  0  0  0
   -0.7500   -3.8971    0.0000 O   0  0  0  0  0  0  0  0  0  0  0  0
    1.5000   -2.5981    0.0000 N   0  0  0  0  0  0  0  0  0  0  0  0
    0.7500   -1.2990    0.0000 C   0  0  0  0  0  0  0  0  0  0  0  0
    1.5000    0.0000    0.0000 C   0  0  0  0  0  0  0  0  0  0  0  0
    0.7500    1.2990    0.0000 C   0  0  0  0  0  0  0  0  0  0  0  0
   -0.7500    1.2990    0.0000 C   0  0  0  0  0  0  0  0  0  0  0  0
   -1.5000    0.0000    0.0000 C   0  0  0  0  0  0  0  0  0  0  0  0
   -3.0000    0.0000    0.0000 O   0  0  0  0  0  0  0  0  0  0  0  0
   -3.7500    1.2990    0.0000 C   0  0  0  0  0  0  0  0  0  0  0  0
   -3.0000    2.5981    0.0000 C   0  0  0  0  0  0  0  0  0  0  0  0
   -3.7500    3.8971    0.0000 N   0  0  0  0  0  0  0  0  0  0  0  0
   -5.2500    3.8971    0.0000 C   0  0  0  0  0  0  0  0  0  0  0  0
   -6.0000    2.5981    0.0000 C   0  0  0  0  0  0  0  0  0  0  0  0
   -7.5000    2.5981    0.0000 C   0  0  0  0  0  0  0  0  0  0  0  0
   -8.2500    3.8971    0.0000 C   0  0  0  0  0  0  0  0  0  0  0  0
   -9.7500    3.8971    0.0000 C   0  0  0  0  0  0  0  0  0  0  0  0
  -10.5000    2.5981    0.0000 C   0  0  0  0  0  0  0  0  0  0  0  0
  -12.0000    2.5981    0.0000 F   0  0  0  0  0  0  0  0  0  0  0  0
   -9.7500    1.2990    0.0000 C   0  0  0  0  0  0  0  0  0  0  0  0
   -8.2500    1.2990    0.0000 C   0  0  0  0  0  0  0  0  0  0  0  0
   -5.2500    1.2990    0.0000 N   0  0  0  0  0  0  0  0  0  0  0  0
   -0.7500   -1.2990    0.0000 C   0  0  0  0  0  0  0  0  0  0  0  0
   -0.7418   -6.6520    0.0000 N   0  0  0  0  0  0  0  0  0  0  0  0
   -1.0537   -8.1192    0.0000 O   0  0  0  0  0  0  0  0  0  0  0  0
  1  2  1  0
  2  3  1  0
  2  4  1  0
  2  5  1  0
  5  6  2  0
  6  7  1  0
  7  8  1  0
  8  9  1  0
  9 10  2  0
  9 11  1  0
 11 12  1  0
 12 13  2  0
 13 14  1  0
 14 15  2  0
 15 16  1  0
 16 17  1  0
 17 18  1  0
 18 19  2  0
 19 20  1  0
 20 21  2  0
 21 22  1  0
 22 23  1  0
 23 24  2  0
 24 25  1  0
 25 26  2  0
 26 27  1  0
 26 28  1  0
 28 29  2  0
 22 30  2  0
 16 31  2  0
  7 32  2  0
 32 33  1  0
 33  5  1  0
 31 12  1  0
 30 18  1  0
 29 23  1  0
M  END
>  <Compound_ID>  (135) 
CHEMBL3596889

>  <Molecule Name>  (135) 
nan

>  <Molecular Weight>  (135) 
447.47

>  <AlogP>  (135) 
6.0

>  <Smiles>  (135) 
CC(C)(C)c1cc(NC(=O)Nc2cccc(Oc3cncc(-c4ccc(F)cc4)n3)c2)no1

>  <Standard Type>  (135) 
IC50

>  <Standard Relation>  (135) 
'='

>  <Standard Units>  (135) 
nM

>  <Standard Value>  (135) 
22.0

>  <Assay ChEMBL ID>  (135) 
CHEMBL3598604

>  <Assay Description>  (135) 
Inhibition of human recombinant TrkA using ATP and 5FAM tagged TrkA peptide substrate incubated for 60 mins by microfluidics assay

>  <BAO Format ID>  (135) 
BAO_0000357

>  <BAO Label>  (135) 
single protein format

>  <Assay Organism>  (135) 
Homo sapiens

>  <Target ChEMBL ID>  (135) 
CHEMBL2815

>  <Target Name>  (135) 
Nerve growth factor receptor Trk-A

>  <Target Organism>  (135) 
Homo sapiens

>  <Target Type>  (135) 
SINGLE PROTEIN

>  <Document ChEMBL ID>  (135) 
CHEMBL3596123

>  <Source Description>  (135) 
Scientific Literature

>  <Document Journal>  (135) 
Medchemcomm

>  <Document Year>  (135) 
2014.0

>  <Active>  (135) 
1.0

>  <bits>  (135) 
<rdkit.DataStructs.cDataStructs.ExplicitBitVect object at 0x00000159F53A55B0>

>  <Group>  (135) 
G2

$$$$

     RDKit          2D

 32 35  0  0  0  0  0  0  0  0999 V2000
    4.6740   -4.8322    0.0000 C   0  0  0  0  0  0  0  0  0  0  0  0
    3.3037   -4.2221    0.0000 N   0  0  0  0  0  0  0  0  0  0  0  0
    2.9918   -2.7549    0.0000 C   0  0  0  0  0  0  0  0  0  0  0  0
    1.5000   -2.5981    0.0000 C   0  0  0  0  0  0  0  0  0  0  0  0
    0.7500   -1.2990    0.0000 C   0  0  0  0  0  0  0  0  0  0  0  0
    1.5000    0.0000    0.0000 C   0  0  0  0  0  0  0  0  0  0  0  0
    0.7500    1.2990    0.0000 N   0  0  0  0  0  0  0  0  0  0  0  0
   -0.7500    1.2990    0.0000 C   0  0  0  0  0  0  0  0  0  0  0  0
   -1.5000    0.0000    0.0000 C   0  0  0  0  0  0  0  0  0  0  0  0
   -3.0000    0.0000    0.0000 C   0  0  0  0  0  0  0  0  0  0  0  0
   -3.7500    1.2990    0.0000 C   0  0  0  0  0  0  0  0  0  0  0  0
   -5.2500    1.2990    0.0000 C   0  0  0  0  0  0  0  0  0  0  0  0
   -6.0000    0.0000    0.0000 C   0  0  0  0  0  0  0  0  0  0  0  0
   -7.5000    0.0000    0.0000 N   0  0  0  0  0  0  0  0  0  0  0  0
   -8.2500    1.2990    0.0000 C   0  0  0  0  0  0  0  0  0  0  0  0
   -7.5000    2.5981    0.0000 O   0  0  0  0  0  0  0  0  0  0  0  0
   -9.7500    1.2990    0.0000 N   0  0  0  0  0  0  0  0  0  0  0  0
  -10.5000    2.5981    0.0000 C   0  0  0  0  0  0  0  0  0  0  0  0
  -11.9918    2.7549    0.0000 C   0  0  0  0  0  0  0  0  0  0  0  0
  -12.3037    4.2221    0.0000 C   0  0  0  0  0  0  0  0  0  0  0  0
  -13.6740    4.8322    0.0000 C   0  0  0  0  0  0  0  0  0  0  0  0
  -13.0639    6.2025    0.0000 C   0  0  0  0  0  0  0  0  0  0  0  0
  -14.2841    3.4619    0.0000 C   0  0  0  0  0  0  0  0  0  0  0  0
  -15.0443    5.4423    0.0000 C   0  0  0  0  0  0  0  0  0  0  0  0
  -11.0046    4.9721    0.0000 N   0  0  0  0  0  0  0  0  0  0  0  0
   -9.8899    3.9684    0.0000 N   0  0  0  0  0  0  0  0  0  0  0  0
   -8.4227    4.2803    0.0000 C   0  0  0  0  0  0  0  0  0  0  0  0
   -5.2500   -1.2990    0.0000 C   0  0  0  0  0  0  0  0  0  0  0  0
   -3.7500   -1.2990    0.0000 C   0  0  0  0  0  0  0  0  0  0  0  0
   -0.7500   -1.2990    0.0000 N   0  0  0  0  0  0  0  0  0  0  0  0
    0.8899   -3.9684    0.0000 C   0  0  0  0  0  0  0  0  0  0  0  0
    2.0046   -4.9721    0.0000 N   0  0  0  0  0  0  0  0  0  0  0  0
  1  2  1  0
  2  3  1  0
  3  4  2  0
  4  5  1  0
  5  6  2  0
  6  7  1  0
  7  8  2  0
  8  9  1  0
  9 10  1  0
 10 11  2  0
 11 12  1  0
 12 13  2  0
 13 14  1  0
 14 15  1  0
 15 16  2  0
 15 17  1  0
 17 18  1  0
 18 19  2  0
 19 20  1  0
 20 21  1  0
 21 22  1  0
 21 23  1  0
 21 24  1  0
 20 25  2  0
 25 26  1  0
 26 27  1  0
 13 28  1  0
 28 29  2  0
  9 30  2  0
  4 31  1  0
 31 32  2  0
 32  2  1  0
 30  5  1  0
 29 10  1  0
 26 18  1  0
M  END
>  <Compound_ID>  (136) 
CHEMBL3596893

>  <Molecule Name>  (136) 
nan

>  <Molecular Weight>  (136) 
430.52

>  <AlogP>  (136) 
4.22

>  <Smiles>  (136) 
Cn1cc(-c2cncc(-c3ccc(NC(=O)Nc4cc(C(C)(C)C)nn4C)cc3)n2)cn1

>  <Standard Type>  (136) 
IC50

>  <Standard Relation>  (136) 
'='

>  <Standard Units>  (136) 
nM

>  <Standard Value>  (136) 
12.0

>  <Assay ChEMBL ID>  (136) 
CHEMBL3598604

>  <Assay Description>  (136) 
Inhibition of human recombinant TrkA using ATP and 5FAM tagged TrkA peptide substrate incubated for 60 mins by microfluidics assay

>  <BAO Format ID>  (136) 
BAO_0000357

>  <BAO Label>  (136) 
single protein format

>  <Assay Organism>  (136) 
Homo sapiens

>  <Target ChEMBL ID>  (136) 
CHEMBL2815

>  <Target Name>  (136) 
Nerve growth factor receptor Trk-A

>  <Target Organism>  (136) 
Homo sapiens

>  <Target Type>  (136) 
SINGLE PROTEIN

>  <Document ChEMBL ID>  (136) 
CHEMBL3596123

>  <Source Description>  (136) 
Scientific Literature

>  <Document Journal>  (136) 
Medchemcomm

>  <Document Year>  (136) 
2014.0

>  <Active>  (136) 
1.0

>  <bits>  (136) 
<rdkit.DataStructs.cDataStructs.ExplicitBitVect object at 0x00000159F53A4200>

>  <Group>  (136) 
G2

$$$$

     RDKit          2D

 35 38  0  0  0  0  0  0  0  0999 V2000
   -6.6080   -3.1125    0.0000 C   0  0  0  0  0  0  0  0  0  0  0  0
   -5.1814   -2.6490    0.0000 O   0  0  0  0  0  0  0  0  0  0  0  0
   -4.0667   -3.6527    0.0000 C   0  0  0  0  0  0  0  0  0  0  0  0
   -2.6401   -3.1891    0.0000 C   0  0  0  0  0  0  0  0  0  0  0  0
   -2.1766   -4.6157    0.0000 C   0  0  0  0  0  0  0  0  0  0  0  0
   -3.1036   -1.7626    0.0000 C   0  0  0  0  0  0  0  0  0  0  0  0
   -1.2135   -2.7256    0.0000 N   0  0  0  0  0  0  0  0  0  0  0  0
   -0.0000   -3.6073    0.0000 C   0  0  0  0  0  0  0  0  0  0  0  0
    1.2135   -2.7256    0.0000 C   0  0  0  0  0  0  0  0  0  0  0  0
    2.6401   -3.1891    0.0000 C   0  0  0  0  0  0  0  0  0  0  0  0
    3.7548   -2.1855    0.0000 O   0  0  0  0  0  0  0  0  0  0  0  0
    2.9520   -4.6564    0.0000 C   0  0  0  0  0  0  0  0  0  0  0  0
    1.8373   -5.6601    0.0000 C   0  0  0  0  0  0  0  0  0  0  0  0
    2.1491   -7.1273    0.0000 N   0  0  0  0  0  0  0  0  0  0  0  0
    3.5757   -7.5908    0.0000 C   0  0  0  0  0  0  0  0  0  0  0  0
    4.6904   -6.5871    0.0000 C   0  0  0  0  0  0  0  0  0  0  0  0
    6.1170   -7.0506    0.0000 N   0  0  0  0  0  0  0  0  0  0  0  0
    6.4289   -8.5179    0.0000 C   0  0  0  0  0  0  0  0  0  0  0  0
    5.3142   -9.5216    0.0000 O   0  0  0  0  0  0  0  0  0  0  0  0
    7.8555   -8.9814    0.0000 C   0  0  0  0  0  0  0  0  0  0  0  0
    8.1673  -10.4486    0.0000 C   0  0  0  0  0  0  0  0  0  0  0  0
    7.0526  -11.4523    0.0000 C   0  0  0  0  0  0  0  0  0  0  0  0
    7.3645  -12.9195    0.0000 C   0  0  0  0  0  0  0  0  0  0  0  0
    8.7911  -13.3831    0.0000 C   0  0  0  0  0  0  0  0  0  0  0  0
    9.1029  -14.8503    0.0000 Cl  0  0  0  0  0  0  0  0  0  0  0  0
    9.9058  -12.3794    0.0000 C   0  0  0  0  0  0  0  0  0  0  0  0
    9.5939  -10.9121    0.0000 N   0  0  0  0  0  0  0  0  0  0  0  0
    4.3786   -5.1199    0.0000 C   0  0  0  0  0  0  0  0  0  0  0  0
    0.7500   -1.2990    0.0000 C   0  0  0  0  0  0  0  0  0  0  0  0
    1.5000    0.0000    0.0000 C   0  0  0  0  0  0  0  0  0  0  0  0
    0.7500    1.2990    0.0000 N   0  0  0  0  0  0  0  0  0  0  0  0
   -0.7500    1.2990    0.0000 C   0  0  0  0  0  0  0  0  0  0  0  0
   -1.5000    2.5981    0.0000 N   0  0  0  0  0  0  0  0  0  0  0  0
   -1.5000    0.0000    0.0000 N   0  0  0  0  0  0  0  0  0  0  0  0
   -0.7500   -1.2990    0.0000 C   0  0  0  0  0  0  0  0  0  0  0  0
  1  2  1  0
  2  3  1  0
  3  4  1  0
  4  5  1  0
  4  6  1  0
  4  7  1  0
  7  8  1  0
  8  9  2  0
  9 10  1  0
 10 11  2  0
 10 12  1  0
 12 13  2  0
 13 14  1  0
 14 15  2  0
 15 16  1  0
 16 17  1  0
 17 18  1  0
 18 19  2  0
 18 20  1  0
 20 21  1  0
 21 22  2  0
 22 23  1  0
 23 24  2  0
 24 25  1  0
 24 26  1  0
 26 27  2  0
 16 28  2  0
  9 29  1  0
 29 30  2  0
 30 31  1  0
 31 32  2  0
 32 33  1  0
 32 34  1  0
 34 35  2  0
 35  7  1  0
 28 12  1  0
 35 29  1  0
 27 21  1  0
M  END
>  <Compound_ID>  (137) 
CHEMBL3671421

>  <Molecule Name>  (137) 
nan

>  <Molecular Weight>  (137) 
493.96

>  <AlogP>  (137) 
3.25

>  <Smiles>  (137) 
COCC(C)(C)n1cc(C(=O)c2cncc(NC(=O)Cc3ccc(Cl)cn3)c2)c2cnc(N)nc21

>  <Standard Type>  (137) 
IC50

>  <Standard Relation>  (137) 
'='

>  <Standard Units>  (137) 
nM

>  <Standard Value>  (137) 
3.88

>  <Assay ChEMBL ID>  (137) 
CHEMBL3887033

>  <Assay Description>  (137) 
Enzyme Assay: Isolated TRK Enzyme assays use the HTRF KinEASE-TK kit (Cisbio Cat# 62TK0PEJ) with recombinant His-tagged cytoplasmic domains of each TRK receptor sourced from Invitrogen (see table below). This activity-assay measures the phosphorylation of tyrosine residues within a substrate from the HTRF kit which has been validated by Cisbio for a variety of tyrosine kinases including the TRK receptors. Assay details: Target:TRKA; Invitrogen Cat# PV3144; Amino acids:aa 441-796; FAC enzyme:4nM; FAC ATP:40uM; Assay Reaction Time:35min.

>  <BAO Format ID>  (137) 
BAO_0000357

>  <BAO Label>  (137) 
single protein format

>  <Assay Organism>  (137) 
None

>  <Target ChEMBL ID>  (137) 
CHEMBL2815

>  <Target Name>  (137) 
Nerve growth factor receptor Trk-A

>  <Target Organism>  (137) 
Homo sapiens

>  <Target Type>  (137) 
SINGLE PROTEIN

>  <Document ChEMBL ID>  (137) 
CHEMBL3639348

>  <Source Description>  (137) 
BindingDB Database

>  <Document Journal>  (137) 
nan

>  <Document Year>  (137) 
2014.0

>  <Active>  (137) 
1.0

>  <bits>  (137) 
<rdkit.DataStructs.cDataStructs.ExplicitBitVect object at 0x00000159F53A5310>

>  <Group>  (137) 
G2

$$$$

     RDKit          2D

 37 41  0  0  0  0  0  0  0  0999 V2000
   -4.9361    1.0064    0.0000 C   0  0  0  0  0  0  0  0  0  0  0  0
   -4.3260   -0.3640    0.0000 C   0  0  0  0  0  0  0  0  0  0  0  0
   -3.7159   -1.7343    0.0000 C   0  0  0  0  0  0  0  0  0  0  0  0
   -4.5976   -2.9478    0.0000 O   0  0  0  0  0  0  0  0  0  0  0  0
   -2.9557    0.2461    0.0000 C   0  0  0  0  0  0  0  0  0  0  0  0
   -2.7989    1.7379    0.0000 O   0  0  0  0  0  0  0  0  0  0  0  0
   -5.6963   -0.9741    0.0000 N   0  0  0  0  0  0  0  0  0  0  0  0
   -6.0082   -2.4413    0.0000 C   0  0  0  0  0  0  0  0  0  0  0  0
   -7.5000   -2.5981    0.0000 C   0  0  0  0  0  0  0  0  0  0  0  0
   -8.2500   -3.8971    0.0000 C   0  0  0  0  0  0  0  0  0  0  0  0
   -9.7500   -3.8971    0.0000 O   0  0  0  0  0  0  0  0  0  0  0  0
   -7.5000   -5.1962    0.0000 C   0  0  0  0  0  0  0  0  0  0  0  0
   -8.2500   -6.4952    0.0000 C   0  0  0  0  0  0  0  0  0  0  0  0
   -7.5000   -7.7942    0.0000 N   0  0  0  0  0  0  0  0  0  0  0  0
   -6.0000   -7.7942    0.0000 C   0  0  0  0  0  0  0  0  0  0  0  0
   -5.2500   -6.4952    0.0000 C   0  0  0  0  0  0  0  0  0  0  0  0
   -3.7500   -6.4952    0.0000 N   0  0  0  0  0  0  0  0  0  0  0  0
   -3.0000   -5.1962    0.0000 C   0  0  0  0  0  0  0  0  0  0  0  0
   -3.7500   -3.8971    0.0000 O   0  0  0  0  0  0  0  0  0  0  0  0
   -1.5000   -5.1962    0.0000 C   0  0  0  0  0  0  0  0  0  0  0  0
   -0.7500   -3.8971    0.0000 C   0  0  0  0  0  0  0  0  0  0  0  0
    0.7500   -3.8971    0.0000 C   0  0  0  0  0  0  0  0  0  0  0  0
    1.5000   -2.5981    0.0000 C   0  0  0  0  0  0  0  0  0  0  0  0
    0.7500   -1.2990    0.0000 C   0  0  0  0  0  0  0  0  0  0  0  0
    1.5000    0.0000    0.0000 C   0  0  0  0  0  0  0  0  0  0  0  0
    0.7500    1.2990    0.0000 C   0  0  0  0  0  0  0  0  0  0  0  0
   -0.7500    1.2990    0.0000 C   0  0  0  0  0  0  0  0  0  0  0  0
   -1.5000    0.0000    0.0000 N   0  0  0  0  0  0  0  0  0  0  0  0
   -0.7500   -1.2990    0.0000 C   0  0  0  0  0  0  0  0  0  0  0  0
   -1.5000   -2.5981    0.0000 C   0  0  0  0  0  0  0  0  0  0  0  0
   -6.0000   -5.1962    0.0000 C   0  0  0  0  0  0  0  0  0  0  0  0
   -8.1101   -1.2278    0.0000 C   0  0  0  0  0  0  0  0  0  0  0  0
   -9.5367   -0.7642    0.0000 C   0  0  0  0  0  0  0  0  0  0  0  0
   -9.8486    0.7030    0.0000 N   0  0  0  0  0  0  0  0  0  0  0  0
   -8.7338    1.7067    0.0000 C   0  0  0  0  0  0  0  0  0  0  0  0
   -7.3073    1.2432    0.0000 N   0  0  0  0  0  0  0  0  0  0  0  0
   -6.9954   -0.2241    0.0000 C   0  0  0  0  0  0  0  0  0  0  0  0
  1  2  1  0
  2  3  1  0
  3  4  1  0
  2  5  1  0
  5  6  1  0
  2  7  1  0
  7  8  1  0
  8  9  2  0
  9 10  1  0
 10 11  2  0
 10 12  1  0
 12 13  2  0
 13 14  1  0
 14 15  2  0
 15 16  1  0
 16 17  1  0
 17 18  1  0
 18 19  2  0
 18 20  1  0
 20 21  1  0
 21 22  2  0
 22 23  1  0
 23 24  2  0
 24 25  1  0
 25 26  2  0
 26 27  1  0
 27 28  2  0
 28 29  1  0
 29 30  2  0
 16 31  2  0
  9 32  1  0
 32 33  2  0
 33 34  1  0
 34 35  2  0
 35 36  1  0
 36 37  2  0
 37  7  1  0
 31 12  1  0
 37 32  1  0
 30 21  1  0
 29 24  1  0
M  END
>  <Compound_ID>  (138) 
CHEMBL3661622

>  <Molecule Name>  (138) 
nan

>  <Molecular Weight>  (138) 
496.53

>  <AlogP>  (138) 
2.49

>  <Smiles>  (138) 
CC(CO)(CO)n1cc(C(=O)c2cncc(NC(=O)Cc3ccc4cccnc4c3)c2)c2cncnc21

>  <Standard Type>  (138) 
IC50

>  <Standard Relation>  (138) 
'='

>  <Standard Units>  (138) 
nM

>  <Standard Value>  (138) 
96.5

>  <Assay ChEMBL ID>  (138) 
CHEMBL3887033

>  <Assay Description>  (138) 
Enzyme Assay: Isolated TRK Enzyme assays use the HTRF KinEASE-TK kit (Cisbio Cat# 62TK0PEJ) with recombinant His-tagged cytoplasmic domains of each TRK receptor sourced from Invitrogen (see table below). This activity-assay measures the phosphorylation of tyrosine residues within a substrate from the HTRF kit which has been validated by Cisbio for a variety of tyrosine kinases including the TRK receptors. Assay details: Target:TRKA; Invitrogen Cat# PV3144; Amino acids:aa 441-796; FAC enzyme:4nM; FAC ATP:40uM; Assay Reaction Time:35min.

>  <BAO Format ID>  (138) 
BAO_0000357

>  <BAO Label>  (138) 
single protein format

>  <Assay Organism>  (138) 
None

>  <Target ChEMBL ID>  (138) 
CHEMBL2815

>  <Target Name>  (138) 
Nerve growth factor receptor Trk-A

>  <Target Organism>  (138) 
Homo sapiens

>  <Target Type>  (138) 
SINGLE PROTEIN

>  <Document ChEMBL ID>  (138) 
CHEMBL3639348

>  <Source Description>  (138) 
BindingDB Database

>  <Document Journal>  (138) 
nan

>  <Document Year>  (138) 
2014.0

>  <Active>  (138) 
1.0

>  <bits>  (138) 
<rdkit.DataStructs.cDataStructs.ExplicitBitVect object at 0x00000159F53A45F0>

>  <Group>  (138) 
G2

$$$$

     RDKit          2D

 35 38  0  0  0  0  0  0  0  0999 V2000
   -2.9520   -4.6564    0.0000 C   0  0  0  0  0  0  0  0  0  0  0  0
   -2.6401   -3.1891    0.0000 C   0  0  0  0  0  0  0  0  0  0  0  0
   -3.7548   -2.1855    0.0000 C   0  0  0  0  0  0  0  0  0  0  0  0
   -1.2135   -2.7256    0.0000 N   0  0  0  0  0  0  0  0  0  0  0  0
   -0.0000   -3.6073    0.0000 C   0  0  0  0  0  0  0  0  0  0  0  0
    1.2135   -2.7256    0.0000 C   0  0  0  0  0  0  0  0  0  0  0  0
    2.6401   -3.1891    0.0000 C   0  0  0  0  0  0  0  0  0  0  0  0
    3.7548   -2.1855    0.0000 O   0  0  0  0  0  0  0  0  0  0  0  0
    2.9520   -4.6564    0.0000 C   0  0  0  0  0  0  0  0  0  0  0  0
    1.8373   -5.6601    0.0000 C   0  0  0  0  0  0  0  0  0  0  0  0
    2.1491   -7.1273    0.0000 C   0  0  0  0  0  0  0  0  0  0  0  0
    3.5757   -7.5908    0.0000 N   0  0  0  0  0  0  0  0  0  0  0  0
    4.6904   -6.5871    0.0000 C   0  0  0  0  0  0  0  0  0  0  0  0
    6.1170   -7.0506    0.0000 N   0  0  0  0  0  0  0  0  0  0  0  0
    6.4289   -8.5179    0.0000 C   0  0  0  0  0  0  0  0  0  0  0  0
    5.3142   -9.5216    0.0000 O   0  0  0  0  0  0  0  0  0  0  0  0
    7.8555   -8.9814    0.0000 C   0  0  0  0  0  0  0  0  0  0  0  0
    8.1673  -10.4486    0.0000 C   0  0  0  0  0  0  0  0  0  0  0  0
    7.0526  -11.4523    0.0000 C   0  0  0  0  0  0  0  0  0  0  0  0
    7.3645  -12.9195    0.0000 C   0  0  0  0  0  0  0  0  0  0  0  0
    8.7911  -13.3831    0.0000 C   0  0  0  0  0  0  0  0  0  0  0  0
    9.9058  -12.3794    0.0000 C   0  0  0  0  0  0  0  0  0  0  0  0
   11.3324  -12.8429    0.0000 C   0  0  0  0  0  0  0  0  0  0  0  0
   11.6442  -14.3101    0.0000 C   0  0  0  0  0  0  0  0  0  0  0  0
   10.1770  -14.6220    0.0000 C   0  0  0  0  0  0  0  0  0  0  0  0
   13.1115  -13.9982    0.0000 C   0  0  0  0  0  0  0  0  0  0  0  0
   11.9561  -15.7773    0.0000 O   0  0  0  0  0  0  0  0  0  0  0  0
    9.5939  -10.9121    0.0000 C   0  0  0  0  0  0  0  0  0  0  0  0
    4.3786   -5.1199    0.0000 C   0  0  0  0  0  0  0  0  0  0  0  0
    0.7500   -1.2990    0.0000 C   0  0  0  0  0  0  0  0  0  0  0  0
    1.5000    0.0000    0.0000 C   0  0  0  0  0  0  0  0  0  0  0  0
    0.7500    1.2990    0.0000 N   0  0  0  0  0  0  0  0  0  0  0  0
   -0.7500    1.2990    0.0000 C   0  0  0  0  0  0  0  0  0  0  0  0
   -1.5000    0.0000    0.0000 C   0  0  0  0  0  0  0  0  0  0  0  0
   -0.7500   -1.2990    0.0000 C   0  0  0  0  0  0  0  0  0  0  0  0
  1  2  1  0
  2  3  1  0
  2  4  1  0
  4  5  1  0
  5  6  2  0
  6  7  1  0
  7  8  2  0
  7  9  1  0
  9 10  2  0
 10 11  1  0
 11 12  2  0
 12 13  1  0
 13 14  1  0
 14 15  1  0
 15 16  2  0
 15 17  1  0
 17 18  1  0
 18 19  2  0
 19 20  1  0
 20 21  2  0
 21 22  1  0
 22 23  1  0
 23 24  1  0
 24 25  1  0
 24 26  1  0
 24 27  1  0
 22 28  2  0
 13 29  2  0
  6 30  1  0
 30 31  2  0
 31 32  1  0
 32 33  2  0
 33 34  1  0
 34 35  2  0
 35  4  1  0
 29  9  1  0
 35 30  1  0
 28 18  1  0
M  END
>  <Compound_ID>  (139) 
CHEMBL3895151

>  <Molecule Name>  (139) 
nan

>  <Molecular Weight>  (139) 
470.57

>  <AlogP>  (139) 
4.74

>  <Smiles>  (139) 
CC(C)n1cc(C(=O)c2ccnc(NC(=O)Cc3cccc(CC(C)(C)O)c3)c2)c2cnccc21

>  <Standard Type>  (139) 
IC50

>  <Standard Relation>  (139) 
'='

>  <Standard Units>  (139) 
nM

>  <Standard Value>  (139) 
31.1

>  <Assay ChEMBL ID>  (139) 
CHEMBL3887111

>  <Assay Description>  (139) 
HTRF Assay: Isolated TRK Enzyme assays use the HTRF KinEASE-TK kit (Cisbio Cat#62TK0PEJ) with recombinant His-tagged cytoplasmic domains of each TRK receptor sourced from Invitrogen (see table below). This activity-assay measures the phosphorylation of tyrosine residues within a substrate from the HTRF kit which has been validated by Cisbio for a variety of tyrosine kinases including the TRK receptors.Assay Details: Invitrogen Amino FAC FAC Assay ReactionTarget Cat# acids enzyme ATP TimeTRKA PV3144 aa 441-4 nM 40 uM 35 min (NTRK1) 796 TRKB PV3616 aa 526-1 nM 1.4 uM 40 min (NTRK2) 838 TRKC PV3617 aa 510- 10 nM 15 uM 30 min (NTRK3) 8250.5 mM stock solutions of test compounds are prepared and serially diluted in 100% DMSO. A standard curve using the compound of Example 135 disclosed in WO2005/116035 of 150 uM is also prepared on each test plate. High percentage effect (HPE) is defined by 150 uM.

>  <BAO Format ID>  (139) 
BAO_0000357

>  <BAO Label>  (139) 
single protein format

>  <Assay Organism>  (139) 
None

>  <Target ChEMBL ID>  (139) 
CHEMBL2815

>  <Target Name>  (139) 
Nerve growth factor receptor Trk-A

>  <Target Organism>  (139) 
Homo sapiens

>  <Target Type>  (139) 
SINGLE PROTEIN

>  <Document ChEMBL ID>  (139) 
CHEMBL3886170

>  <Source Description>  (139) 
BindingDB Database

>  <Document Journal>  (139) 
nan

>  <Document Year>  (139) 
2015.0

>  <Active>  (139) 
1.0

>  <bits>  (139) 
<rdkit.DataStructs.cDataStructs.ExplicitBitVect object at 0x00000159F53A4190>

>  <Group>  (139) 
G2

$$$$

     RDKit          2D

 31 35  0  0  0  0  0  0  0  0999 V2000
   -7.0770   -7.1119    0.0000 C   0  0  0  0  0  0  0  0  0  0  0  0
   -6.3961   -5.7754    0.0000 C   0  0  0  0  0  0  0  0  0  0  0  0
   -7.7326   -5.0944    0.0000 O   0  0  0  0  0  0  0  0  0  0  0  0
   -5.7151   -4.4389    0.0000 C   0  0  0  0  0  0  0  0  0  0  0  0
   -4.3786   -5.1199    0.0000 N   0  0  0  0  0  0  0  0  0  0  0  0
   -2.9520   -4.6564    0.0000 C   0  0  0  0  0  0  0  0  0  0  0  0
   -1.8373   -5.6601    0.0000 O   0  0  0  0  0  0  0  0  0  0  0  0
   -2.6401   -3.1891    0.0000 N   0  0  0  0  0  0  0  0  0  0  0  0
   -1.2135   -2.7256    0.0000 C   0  0  0  0  0  0  0  0  0  0  0  0
   -0.0000   -3.6073    0.0000 C   0  0  0  0  0  0  0  0  0  0  0  0
    1.2135   -2.7256    0.0000 N   0  0  0  0  0  0  0  0  0  0  0  0
    0.7500   -1.2990    0.0000 C   0  0  0  0  0  0  0  0  0  0  0  0
    1.5000    0.0000    0.0000 C   0  0  0  0  0  0  0  0  0  0  0  0
    0.7500    1.2990    0.0000 C   0  0  0  0  0  0  0  0  0  0  0  0
   -0.7500    1.2990    0.0000 C   0  0  0  0  0  0  0  0  0  0  0  0
   -1.5000    2.5981    0.0000 N   0  0  0  0  0  0  0  0  0  0  0  0
   -2.9918    2.7549    0.0000 C   0  0  0  0  0  0  0  0  0  0  0  0
   -3.3037    4.2221    0.0000 C   0  0  0  0  0  0  0  0  0  0  0  0
   -2.0046    4.9721    0.0000 C   0  0  0  0  0  0  0  0  0  0  0  0
   -0.8899    3.9684    0.0000 C   0  0  0  0  0  0  0  0  0  0  0  0
    0.5773    4.2803    0.0000 C   0  0  0  0  0  0  0  0  0  0  0  0
    1.5810    3.1655    0.0000 C   0  0  0  0  0  0  0  0  0  0  0  0
    3.0482    3.4774    0.0000 C   0  0  0  0  0  0  0  0  0  0  0  0
    4.0519    2.3627    0.0000 F   0  0  0  0  0  0  0  0  0  0  0  0
    3.5118    4.9040    0.0000 C   0  0  0  0  0  0  0  0  0  0  0  0
    2.5081    6.0187    0.0000 C   0  0  0  0  0  0  0  0  0  0  0  0
    1.0409    5.7068    0.0000 C   0  0  0  0  0  0  0  0  0  0  0  0
    0.0372    6.8216    0.0000 F   0  0  0  0  0  0  0  0  0  0  0  0
   -1.5000    0.0000    0.0000 N   0  0  0  0  0  0  0  0  0  0  0  0
   -0.7500   -1.2990    0.0000 N   0  0  0  0  0  0  0  0  0  0  0  0
   -5.0595   -6.4564    0.0000 C   0  0  0  0  0  0  0  0  0  0  0  0
  1  2  1  0
  2  3  1  0
  2  4  1  0
  4  5  1  0
  5  6  1  0
  6  7  2  0
  6  8  1  0
  8  9  1  0
  9 10  2  0
 10 11  1  0
 11 12  2  0
 12 13  1  0
 13 14  2  0
 14 15  1  0
 15 16  1  0
 16 17  1  0
 17 18  1  0
 18 19  1  0
 19 20  1  0
 20 21  1  6
 21 22  2  0
 22 23  1  0
 23 24  1  0
 23 25  2  0
 25 26  1  0
 26 27  2  0
 27 28  1  0
 15 29  2  0
 29 30  1  0
  5 31  1  0
 31  2  1  0
 30  9  1  0
 30 12  1  0
 20 16  1  0
 27 21  1  0
M  END
>  <Compound_ID>  (140) 
CHEMBL4113459

>  <Molecule Name>  (140) 
nan

>  <Molecular Weight>  (140) 
428.44

>  <AlogP>  (140) 
2.95

>  <Smiles>  (140) 
CC1(O)CN(C(=O)Nc2cnc3ccc(N4CCC[C@@H]4c4cc(F)ccc4F)nn23)C1

>  <Standard Type>  (140) 
IC50

>  <Standard Relation>  (140) 
'='

>  <Standard Units>  (140) 
nM

>  <Standard Value>  (140) 
8.9

>  <Assay ChEMBL ID>  (140) 
CHEMBL3887826

>  <Assay Description>  (140) 
ELISA Assay: An enzyme-linked immunosorbant assay (ELISA) was used to assess TrkA kinase activity in the presence of inhibitors. Immulon 4HBX 384-well microtiter plates (Thermo part #8755) were coated with a 0.025 mg/mL solution of poly (Glu, Ala, Tyr; 6:3:1; Sigma P3899). Various concentrations of test compound, 2.5 nM TrkA (Invitrogen Corp., histidine-tagged recombinant human TrkA, cytoplasmic domain), and 500 uM ATP were incubated for 25 minutes at ambient temperature in the coated plates while shaking. The assay buffer consisted of 25 mM MOPS pH 7.5, 0.005% (v/v) Triton X-100 and 5 mM MgCl2. The reaction mixture was removed from the plate by washing with PBS containing 0.1% (v/v) Tween 20. The phosphorylated reaction product was detected using 0.2 ug/mL of a phosphotyrosine specific monoclonal antibody (clone PY20) conjugated to horseradish peroxidase in conjunction with the TMB Peroxidase Substrate System (KPL).

>  <BAO Format ID>  (140) 
BAO_0000357

>  <BAO Label>  (140) 
single protein format

>  <Assay Organism>  (140) 
None

>  <Target ChEMBL ID>  (140) 
CHEMBL2815

>  <Target Name>  (140) 
Nerve growth factor receptor Trk-A

>  <Target Organism>  (140) 
Homo sapiens

>  <Target Type>  (140) 
SINGLE PROTEIN

>  <Document ChEMBL ID>  (140) 
CHEMBL3886465

>  <Source Description>  (140) 
BindingDB Database

>  <Document Journal>  (140) 
nan

>  <Document Year>  (140) 
2016.0

>  <Active>  (140) 
1.0

>  <bits>  (140) 
<rdkit.DataStructs.cDataStructs.ExplicitBitVect object at 0x00000159F53A4B30>

>  <Group>  (140) 
G2

$$$$

     RDKit          2D

 32 36  0  0  0  0  0  0  0  0999 V2000
   -3.8876   -9.0580    0.0000 C   0  0  0  0  0  0  0  0  0  0  0  0
   -3.5757   -7.5908    0.0000 O   0  0  0  0  0  0  0  0  0  0  0  0
   -4.6904   -6.5871    0.0000 C   0  0  0  0  0  0  0  0  0  0  0  0
   -6.1170   -7.0506    0.0000 N   0  0  0  0  0  0  0  0  0  0  0  0
   -7.2317   -6.0469    0.0000 C   0  0  0  0  0  0  0  0  0  0  0  0
   -6.9199   -4.5797    0.0000 C   0  0  0  0  0  0  0  0  0  0  0  0
   -5.4933   -4.1162    0.0000 C   0  0  0  0  0  0  0  0  0  0  0  0
   -4.3786   -5.1199    0.0000 C   0  0  0  0  0  0  0  0  0  0  0  0
   -2.9520   -4.6564    0.0000 C   0  0  0  0  0  0  0  0  0  0  0  0
   -1.8373   -5.6601    0.0000 O   0  0  0  0  0  0  0  0  0  0  0  0
   -2.6401   -3.1891    0.0000 N   0  0  0  0  0  0  0  0  0  0  0  0
   -1.2135   -2.7256    0.0000 C   0  0  0  0  0  0  0  0  0  0  0  0
   -0.0000   -3.6073    0.0000 C   0  0  0  0  0  0  0  0  0  0  0  0
    1.2135   -2.7256    0.0000 N   0  0  0  0  0  0  0  0  0  0  0  0
    0.7500   -1.2990    0.0000 N   0  0  0  0  0  0  0  0  0  0  0  0
    1.5000    0.0000    0.0000 C   0  0  0  0  0  0  0  0  0  0  0  0
    0.7500    1.2990    0.0000 C   0  0  0  0  0  0  0  0  0  0  0  0
   -0.7500    1.2990    0.0000 C   0  0  0  0  0  0  0  0  0  0  0  0
   -1.5000    2.5981    0.0000 N   0  0  0  0  0  0  0  0  0  0  0  0
   -2.9918    2.7549    0.0000 C   0  0  0  0  0  0  0  0  0  0  0  0
   -3.3037    4.2221    0.0000 C   0  0  0  0  0  0  0  0  0  0  0  0
   -2.0046    4.9721    0.0000 C   0  0  0  0  0  0  0  0  0  0  0  0
   -0.8899    3.9684    0.0000 C   0  0  0  0  0  0  0  0  0  0  0  0
    0.5773    4.2803    0.0000 C   0  0  0  0  0  0  0  0  0  0  0  0
    1.5810    3.1655    0.0000 C   0  0  0  0  0  0  0  0  0  0  0  0
    3.0482    3.4774    0.0000 C   0  0  0  0  0  0  0  0  0  0  0  0
    3.5118    4.9040    0.0000 C   0  0  0  0  0  0  0  0  0  0  0  0
    2.5081    6.0187    0.0000 C   0  0  0  0  0  0  0  0  0  0  0  0
    2.9716    7.4453    0.0000 F   0  0  0  0  0  0  0  0  0  0  0  0
    1.0409    5.7068    0.0000 C   0  0  0  0  0  0  0  0  0  0  0  0
   -1.5000    0.0000    0.0000 N   0  0  0  0  0  0  0  0  0  0  0  0
   -0.7500   -1.2990    0.0000 C   0  0  0  0  0  0  0  0  0  0  0  0
  1  2  1  0
  2  3  1  0
  3  4  2  0
  4  5  1  0
  5  6  2  0
  6  7  1  0
  7  8  2  0
  8  9  1  0
  9 10  2  0
  9 11  1  0
 11 12  1  0
 12 13  1  0
 13 14  2  0
 14 15  1  0
 15 16  1  0
 16 17  2  0
 17 18  1  0
 18 19  1  0
 19 20  1  0
 20 21  1  0
 21 22  1  0
 22 23  1  0
 23 24  1  6
 24 25  2  0
 25 26  1  0
 26 27  2  0
 27 28  1  0
 28 29  1  0
 28 30  2  0
 18 31  2  0
 31 32  1  0
  8  3  1  0
 32 12  2  0
 32 15  1  0
 23 19  1  0
 30 24  1  0
M  END
>  <Compound_ID>  (141) 
CHEMBL4112576

>  <Molecule Name>  (141) 
nan

>  <Molecular Weight>  (141) 
432.46

>  <AlogP>  (141) 
3.87

>  <Smiles>  (141) 
COc1ncccc1C(=O)Nc1cnn2ccc(N3CCC[C@@H]3c3cccc(F)c3)nc12

>  <Standard Type>  (141) 
IC50

>  <Standard Relation>  (141) 
'='

>  <Standard Units>  (141) 
nM

>  <Standard Value>  (141) 
5.7

>  <Assay ChEMBL ID>  (141) 
CHEMBL3887076

>  <Assay Description>  (141) 
ELISA Assay: An enzyme-linked immunosorbant assay (ELISA) was used to assess TrkA kinase activity in the presence of inhibitors. Immulon 4HBX 384-well microtiter plates (Thermo part #8755) were coated with a 0.025 mg/mL solution of poly (Glu, Ala, Tyr; 6:3:1; Sigma P3899). Various concentrations of test compound, 2.5 nM TrkA (Invitrogen Corp., histidine-tagged recombinant human TrkA, cytoplasmic domain), and 500 uM ATP were incubated for 25 minutes at ambient temperature in the coated plates while shaking. The assay buffer consisted of 25 mM MOPS pH 7.5, 0.005% (v/v) Triton X-100 and 5 mM MgCl2. The reaction mixture was removed from the plate by washing with PBS containing 0.1% (v/v) Tween 20. The phosphorylated reaction product was detected using 0.2 ug/mL of a phosphotyrosine specific monoclonal antibody (clone PY20) conjugated to horseradish peroxidase in conjunction with the TMB Peroxidase Substrate System (KPL).

>  <BAO Format ID>  (141) 
BAO_0000357

>  <BAO Label>  (141) 
single protein format

>  <Assay Organism>  (141) 
None

>  <Target ChEMBL ID>  (141) 
CHEMBL2815

>  <Target Name>  (141) 
Nerve growth factor receptor Trk-A

>  <Target Organism>  (141) 
Homo sapiens

>  <Target Type>  (141) 
SINGLE PROTEIN

>  <Document ChEMBL ID>  (141) 
CHEMBL3886151

>  <Source Description>  (141) 
BindingDB Database

>  <Document Journal>  (141) 
nan

>  <Document Year>  (141) 
2014.0

>  <Active>  (141) 
1.0

>  <bits>  (141) 
<rdkit.DataStructs.cDataStructs.ExplicitBitVect object at 0x00000159F53A43C0>

>  <Group>  (141) 
G2

$$$$

     RDKit          2D

 35 38  0  0  0  0  0  0  0  0999 V2000
   -2.9520   -4.6564    0.0000 C   0  0  0  0  0  0  0  0  0  0  0  0
   -2.6401   -3.1891    0.0000 C   0  0  0  0  0  0  0  0  0  0  0  0
   -3.7548   -2.1855    0.0000 C   0  0  0  0  0  0  0  0  0  0  0  0
   -1.2135   -2.7256    0.0000 N   0  0  0  0  0  0  0  0  0  0  0  0
   -0.0000   -3.6073    0.0000 C   0  0  0  0  0  0  0  0  0  0  0  0
    1.2135   -2.7256    0.0000 C   0  0  0  0  0  0  0  0  0  0  0  0
    2.6401   -3.1891    0.0000 C   0  0  0  0  0  0  0  0  0  0  0  0
    3.7548   -2.1855    0.0000 O   0  0  0  0  0  0  0  0  0  0  0  0
    2.9520   -4.6564    0.0000 C   0  0  0  0  0  0  0  0  0  0  0  0
    1.8373   -5.6601    0.0000 C   0  0  0  0  0  0  0  0  0  0  0  0
    2.1491   -7.1273    0.0000 N   0  0  0  0  0  0  0  0  0  0  0  0
    3.5757   -7.5908    0.0000 C   0  0  0  0  0  0  0  0  0  0  0  0
    4.6904   -6.5871    0.0000 C   0  0  0  0  0  0  0  0  0  0  0  0
    6.1170   -7.0506    0.0000 N   0  0  0  0  0  0  0  0  0  0  0  0
    6.4289   -8.5179    0.0000 C   0  0  0  0  0  0  0  0  0  0  0  0
    5.3142   -9.5216    0.0000 O   0  0  0  0  0  0  0  0  0  0  0  0
    7.8555   -8.9814    0.0000 C   0  0  0  0  0  0  0  0  0  0  0  0
    8.1673  -10.4486    0.0000 C   0  0  0  0  0  0  0  0  0  0  0  0
    9.5939  -10.9121    0.0000 C   0  0  0  0  0  0  0  0  0  0  0  0
   10.7086   -9.9084    0.0000 C   0  0  0  0  0  0  0  0  0  0  0  0
   10.3968   -8.4412    0.0000 C   0  0  0  0  0  0  0  0  0  0  0  0
   11.5115   -7.4375    0.0000 C   0  0  0  0  0  0  0  0  0  0  0  0
   11.1996   -5.9703    0.0000 O   0  0  0  0  0  0  0  0  0  0  0  0
   12.9381   -7.9010    0.0000 C   0  0  0  0  0  0  0  0  0  0  0  0
   14.3647   -8.3646    0.0000 F   0  0  0  0  0  0  0  0  0  0  0  0
   13.4016   -6.4745    0.0000 F   0  0  0  0  0  0  0  0  0  0  0  0
   12.4745   -9.3276    0.0000 F   0  0  0  0  0  0  0  0  0  0  0  0
    8.9702   -7.9777    0.0000 C   0  0  0  0  0  0  0  0  0  0  0  0
    4.3786   -5.1199    0.0000 C   0  0  0  0  0  0  0  0  0  0  0  0
    0.7500   -1.2990    0.0000 C   0  0  0  0  0  0  0  0  0  0  0  0
    1.5000    0.0000    0.0000 C   0  0  0  0  0  0  0  0  0  0  0  0
    0.7500    1.2990    0.0000 N   0  0  0  0  0  0  0  0  0  0  0  0
   -0.7500    1.2990    0.0000 C   0  0  0  0  0  0  0  0  0  0  0  0
   -1.5000    0.0000    0.0000 N   0  0  0  0  0  0  0  0  0  0  0  0
   -0.7500   -1.2990    0.0000 C   0  0  0  0  0  0  0  0  0  0  0  0
  1  2  1  0
  2  3  1  0
  2  4  1  0
  4  5  1  0
  5  6  2  0
  6  7  1  0
  7  8  2  0
  7  9  1  0
  9 10  2  0
 10 11  1  0
 11 12  2  0
 12 13  1  0
 13 14  1  0
 14 15  1  0
 15 16  2  0
 15 17  1  0
 17 18  2  0
 18 19  1  0
 19 20  2  0
 20 21  1  0
 21 22  1  0
 22 23  2  0
 22 24  1  0
 24 25  1  0
 24 26  1  0
 24 27  1  0
 21 28  2  0
 13 29  2  0
  6 30  1  0
 30 31  2  0
 31 32  1  0
 32 33  2  0
 33 34  1  0
 34 35  2  0
 35  4  1  0
 29  9  1  0
 35 30  1  0
 28 17  1  0
M  END
>  <Compound_ID>  (142) 
CHEMBL3666291

>  <Molecule Name>  (142) 
nan

>  <Molecular Weight>  (142) 
481.43

>  <AlogP>  (142) 
4.64

>  <Smiles>  (142) 
CC(C)n1cc(C(=O)c2cncc(NC(=O)c3cccc(C(=O)C(F)(F)F)c3)c2)c2cncnc21

>  <Standard Type>  (142) 
IC50

>  <Standard Relation>  (142) 
'='

>  <Standard Units>  (142) 
nM

>  <Standard Value>  (142) 
37.7

>  <Assay ChEMBL ID>  (142) 
CHEMBL3887033

>  <Assay Description>  (142) 
Enzyme Assay: Isolated TRK Enzyme assays use the HTRF KinEASE-TK kit (Cisbio Cat# 62TK0PEJ) with recombinant His-tagged cytoplasmic domains of each TRK receptor sourced from Invitrogen (see table below). This activity-assay measures the phosphorylation of tyrosine residues within a substrate from the HTRF kit which has been validated by Cisbio for a variety of tyrosine kinases including the TRK receptors. Assay details: Target:TRKA; Invitrogen Cat# PV3144; Amino acids:aa 441-796; FAC enzyme:4nM; FAC ATP:40uM; Assay Reaction Time:35min.

>  <BAO Format ID>  (142) 
BAO_0000357

>  <BAO Label>  (142) 
single protein format

>  <Assay Organism>  (142) 
None

>  <Target ChEMBL ID>  (142) 
CHEMBL2815

>  <Target Name>  (142) 
Nerve growth factor receptor Trk-A

>  <Target Organism>  (142) 
Homo sapiens

>  <Target Type>  (142) 
SINGLE PROTEIN

>  <Document ChEMBL ID>  (142) 
CHEMBL3639348

>  <Source Description>  (142) 
BindingDB Database

>  <Document Journal>  (142) 
nan

>  <Document Year>  (142) 
2014.0

>  <Active>  (142) 
1.0

>  <bits>  (142) 
<rdkit.DataStructs.cDataStructs.ExplicitBitVect object at 0x00000159F53A4430>

>  <Group>  (142) 
G2

$$$$

     RDKit          2D

 27 30  0  0  0  0  0  0  0  0999 V2000
    6.7500   -6.4952    0.0000 C   0  0  0  0  0  0  0  0  0  0  0  0
    6.0000   -5.1962    0.0000 S   0  0  0  0  0  0  0  0  0  0  0  0
    4.7010   -5.9462    0.0000 O   0  0  0  0  0  0  0  0  0  0  0  0
    7.2990   -4.4462    0.0000 O   0  0  0  0  0  0  0  0  0  0  0  0
    5.2500   -3.8971    0.0000 N   0  0  0  0  0  0  0  0  0  0  0  0
    3.7500   -3.8971    0.0000 C   0  0  0  0  0  0  0  0  0  0  0  0
    3.0000   -5.1962    0.0000 C   0  0  0  0  0  0  0  0  0  0  0  0
    1.5000   -5.1962    0.0000 C   0  0  0  0  0  0  0  0  0  0  0  0
    0.7500   -6.4952    0.0000 N   0  0  0  0  0  0  0  0  0  0  0  0
    0.7500   -3.8971    0.0000 C   0  0  0  0  0  0  0  0  0  0  0  0
    1.5000   -2.5981    0.0000 C   0  0  0  0  0  0  0  0  0  0  0  0
    0.7500   -1.2990    0.0000 C   0  0  0  0  0  0  0  0  0  0  0  0
    1.5000    0.0000    0.0000 C   0  0  0  0  0  0  0  0  0  0  0  0
    0.7500    1.2990    0.0000 N   0  0  0  0  0  0  0  0  0  0  0  0
   -0.7500    1.2990    0.0000 C   0  0  0  0  0  0  0  0  0  0  0  0
   -1.7537    2.4138    0.0000 N   0  0  0  0  0  0  0  0  0  0  0  0
   -3.1240    1.8037    0.0000 C   0  0  0  0  0  0  0  0  0  0  0  0
   -2.9672    0.3119    0.0000 C   0  0  0  0  0  0  0  0  0  0  0  0
   -4.0819   -0.6918    0.0000 C   0  0  0  0  0  0  0  0  0  0  0  0
   -5.5085   -0.2283    0.0000 C   0  0  0  0  0  0  0  0  0  0  0  0
   -6.6232   -1.2320    0.0000 C   0  0  0  0  0  0  0  0  0  0  0  0
   -6.3114   -2.6992    0.0000 N   0  0  0  0  0  0  0  0  0  0  0  0
   -4.8848   -3.1627    0.0000 C   0  0  0  0  0  0  0  0  0  0  0  0
   -3.7701   -2.1590    0.0000 C   0  0  0  0  0  0  0  0  0  0  0  0
   -1.5000    0.0000    0.0000 C   0  0  0  0  0  0  0  0  0  0  0  0
   -0.7500   -1.2990    0.0000 C   0  0  0  0  0  0  0  0  0  0  0  0
    3.0000   -2.5981    0.0000 C   0  0  0  0  0  0  0  0  0  0  0  0
  1  2  1  0
  2  3  2  0
  2  4  2  0
  2  5  1  0
  5  6  1  0
  6  7  2  0
  7  8  1  0
  8  9  1  0
  8 10  2  0
 10 11  1  0
 11 12  1  0
 12 13  2  0
 13 14  1  0
 14 15  2  0
 15 16  1  0
 16 17  1  0
 17 18  2  0
 18 19  1  0
 19 20  2  0
 20 21  1  0
 21 22  2  0
 22 23  1  0
 23 24  2  0
 18 25  1  0
 25 26  2  0
 11 27  2  0
 27  6  1  0
 26 12  1  0
 25 15  1  0
 24 19  1  0
M  END
>  <Compound_ID>  (143) 
CHEMBL2152284

>  <Molecule Name>  (143) 
nan

>  <Molecular Weight>  (143) 
379.45

>  <AlogP>  (143) 
3.25

>  <Smiles>  (143) 
CS(=O)(=O)Nc1cc(N)cc(-c2cnc3[nH]cc(-c4ccncc4)c3c2)c1

>  <Standard Type>  (143) 
IC50

>  <Standard Relation>  (143) 
'='

>  <Standard Units>  (143) 
nM

>  <Standard Value>  (143) 
33.75

>  <Assay ChEMBL ID>  (143) 
CHEMBL2157053

>  <Assay Description>  (143) 
Inhibition of TRKA assessed as [gamma33P]ATP incorporation into substrate

>  <BAO Format ID>  (143) 
BAO_0000357

>  <BAO Label>  (143) 
single protein format

>  <Assay Organism>  (143) 
None

>  <Target ChEMBL ID>  (143) 
CHEMBL2815

>  <Target Name>  (143) 
Nerve growth factor receptor Trk-A

>  <Target Organism>  (143) 
Homo sapiens

>  <Target Type>  (143) 
SINGLE PROTEIN

>  <Document ChEMBL ID>  (143) 
CHEMBL2150859

>  <Source Description>  (143) 
Scientific Literature

>  <Document Journal>  (143) 
J Med Chem

>  <Document Year>  (143) 
2012.0

>  <Active>  (143) 
1.0

>  <bits>  (143) 
<rdkit.DataStructs.cDataStructs.ExplicitBitVect object at 0x00000159F53A4970>

>  <Group>  (143) 
G2

$$$$

     RDKit          2D

 27 29  0  0  0  0  0  0  0  0999 V2000
    3.0000    0.0000    0.0000 C   0  0  0  0  0  0  0  0  0  0  0  0
    1.5000    0.0000    0.0000 C   0  0  0  0  0  0  0  0  0  0  0  0
    0.7500   -1.2990    0.0000 C   0  0  0  0  0  0  0  0  0  0  0  0
   -0.7500   -1.2990    0.0000 C   0  0  0  0  0  0  0  0  0  0  0  0
   -1.5000    0.0000    0.0000 C   0  0  0  0  0  0  0  0  0  0  0  0
   -3.0000    0.0000    0.0000 S   0  0  0  0  0  0  0  0  0  0  0  0
   -3.7500    1.2990    0.0000 C   0  0  0  0  0  0  0  0  0  0  0  0
   -5.2418    1.4558    0.0000 C   0  0  0  0  0  0  0  0  0  0  0  0
   -5.5537    2.9231    0.0000 N   0  0  0  0  0  0  0  0  0  0  0  0
   -4.2546    3.6731    0.0000 C   0  0  0  0  0  0  0  0  0  0  0  0
   -4.0978    5.1648    0.0000 N   0  0  0  0  0  0  0  0  0  0  0  0
   -2.7275    5.7749    0.0000 C   0  0  0  0  0  0  0  0  0  0  0  0
   -1.5140    4.8933    0.0000 C   0  0  0  0  0  0  0  0  0  0  0  0
   -0.1437    5.5034    0.0000 C   0  0  0  0  0  0  0  0  0  0  0  0
    0.0131    6.9951    0.0000 C   0  0  0  0  0  0  0  0  0  0  0  0
   -1.2004    7.8768    0.0000 C   0  0  0  0  0  0  0  0  0  0  0  0
   -2.5707    7.2667    0.0000 N   0  0  0  0  0  0  0  0  0  0  0  0
   -3.1399    2.6694    0.0000 S   0  0  0  0  0  0  0  0  0  0  0  0
   -0.7500    1.2990    0.0000 C   0  0  0  0  0  0  0  0  0  0  0  0
    0.7500    1.2990    0.0000 C   0  0  0  0  0  0  0  0  0  0  0  0
    1.5000    2.5981    0.0000 C   0  0  0  0  0  0  0  0  0  0  0  0
    3.0000    2.5981    0.0000 O   0  0  0  0  0  0  0  0  0  0  0  0
    0.7500    3.8971    0.0000 N   0  0  0  0  0  0  0  0  0  0  0  0
    1.5000    5.1962    0.0000 C   0  0  0  0  0  0  0  0  0  0  0  0
    0.7500    6.4952    0.0000 C   0  0  0  0  0  0  0  0  0  0  0  0
    1.5000    7.7942    0.0000 C   0  0  0  0  0  0  0  0  0  0  0  0
    2.2500    9.0933    0.0000 N   0  0  0  0  0  0  0  0  0  0  0  0
  1  2  1  0
  2  3  2  0
  3  4  1  0
  4  5  2  0
  5  6  1  0
  6  7  1  0
  7  8  2  0
  8  9  1  0
  9 10  2  0
 10 11  1  0
 11 12  1  0
 12 13  2  0
 13 14  1  0
 14 15  2  0
 15 16  1  0
 16 17  2  0
 10 18  1  0
  5 19  1  0
 19 20  2  0
 20 21  1  0
 21 22  2  0
 21 23  1  0
 23 24  1  0
 24 25  1  0
 25 26  1  0
 26 27  3  0
 20  2  1  0
 18  7  1  0
 17 12  1  0
M  END
>  <Compound_ID>  (144) 
CHEMBL403342

>  <Molecule Name>  (144) 
nan

>  <Molecular Weight>  (144) 
395.51

>  <AlogP>  (144) 
4.38

>  <Smiles>  (144) 
Cc1ccc(Sc2cnc(Nc3ccccn3)s2)cc1C(=O)NCCC#N

>  <Standard Type>  (144) 
IC50

>  <Standard Relation>  (144) 
'='

>  <Standard Units>  (144) 
nM

>  <Standard Value>  (144) 
65.0

>  <Assay ChEMBL ID>  (144) 
CHEMBL928869

>  <Assay Description>  (144) 
Inhibition of TrkA

>  <BAO Format ID>  (144) 
BAO_0000357

>  <BAO Label>  (144) 
single protein format

>  <Assay Organism>  (144) 
None

>  <Target ChEMBL ID>  (144) 
CHEMBL2815

>  <Target Name>  (144) 
Nerve growth factor receptor Trk-A

>  <Target Organism>  (144) 
Homo sapiens

>  <Target Type>  (144) 
SINGLE PROTEIN

>  <Document ChEMBL ID>  (144) 
CHEMBL1140800

>  <Source Description>  (144) 
Scientific Literature

>  <Document Journal>  (144) 
Bioorg Med Chem Lett

>  <Document Year>  (144) 
2008.0

>  <Active>  (144) 
1.0

>  <bits>  (144) 
<rdkit.DataStructs.cDataStructs.ExplicitBitVect object at 0x00000159F53A47B0>

>  <Group>  (144) 
G2

$$$$

     RDKit          2D

 31 35  0  0  0  0  0  0  0  0999 V2000
   -8.6583   -6.5105    0.0000 C   0  0  0  0  0  0  0  0  0  0  0  0
   -7.2317   -6.0469    0.0000 C   0  0  0  0  0  0  0  0  0  0  0  0
   -6.9199   -4.5797    0.0000 C   0  0  0  0  0  0  0  0  0  0  0  0
   -5.4933   -4.1162    0.0000 C   0  0  0  0  0  0  0  0  0  0  0  0
   -4.3786   -5.1199    0.0000 C   0  0  0  0  0  0  0  0  0  0  0  0
   -2.9520   -4.6564    0.0000 C   0  0  0  0  0  0  0  0  0  0  0  0
   -1.8373   -5.6601    0.0000 O   0  0  0  0  0  0  0  0  0  0  0  0
   -2.6401   -3.1891    0.0000 N   0  0  0  0  0  0  0  0  0  0  0  0
   -1.2135   -2.7256    0.0000 C   0  0  0  0  0  0  0  0  0  0  0  0
   -0.0000   -3.6073    0.0000 C   0  0  0  0  0  0  0  0  0  0  0  0
    1.2135   -2.7256    0.0000 N   0  0  0  0  0  0  0  0  0  0  0  0
    0.7500   -1.2990    0.0000 N   0  0  0  0  0  0  0  0  0  0  0  0
    1.5000    0.0000    0.0000 C   0  0  0  0  0  0  0  0  0  0  0  0
    0.7500    1.2990    0.0000 C   0  0  0  0  0  0  0  0  0  0  0  0
   -0.7500    1.2990    0.0000 C   0  0  0  0  0  0  0  0  0  0  0  0
   -1.5000    2.5981    0.0000 N   0  0  0  0  0  0  0  0  0  0  0  0
   -2.9918    2.7549    0.0000 C   0  0  0  0  0  0  0  0  0  0  0  0
   -3.3037    4.2221    0.0000 C   0  0  0  0  0  0  0  0  0  0  0  0
   -2.0046    4.9721    0.0000 C   0  0  0  0  0  0  0  0  0  0  0  0
   -0.8899    3.9684    0.0000 C   0  0  0  0  0  0  0  0  0  0  0  0
    0.5773    4.2803    0.0000 C   0  0  0  0  0  0  0  0  0  0  0  0
    1.5810    3.1655    0.0000 C   0  0  0  0  0  0  0  0  0  0  0  0
    3.0482    3.4774    0.0000 C   0  0  0  0  0  0  0  0  0  0  0  0
    3.5118    4.9040    0.0000 C   0  0  0  0  0  0  0  0  0  0  0  0
    2.5081    6.0187    0.0000 C   0  0  0  0  0  0  0  0  0  0  0  0
    2.9716    7.4453    0.0000 F   0  0  0  0  0  0  0  0  0  0  0  0
    1.0409    5.7068    0.0000 C   0  0  0  0  0  0  0  0  0  0  0  0
   -1.5000    0.0000    0.0000 N   0  0  0  0  0  0  0  0  0  0  0  0
   -0.7500   -1.2990    0.0000 C   0  0  0  0  0  0  0  0  0  0  0  0
   -4.6904   -6.5871    0.0000 C   0  0  0  0  0  0  0  0  0  0  0  0
   -6.1170   -7.0506    0.0000 N   0  0  0  0  0  0  0  0  0  0  0  0
  1  2  1  0
  2  3  2  0
  3  4  1  0
  4  5  2  0
  5  6  1  0
  6  7  2  0
  6  8  1  0
  8  9  1  0
  9 10  1  0
 10 11  2  0
 11 12  1  0
 12 13  1  0
 13 14  2  0
 14 15  1  0
 15 16  1  0
 16 17  1  0
 17 18  1  0
 18 19  1  0
 19 20  1  0
 20 21  1  6
 21 22  2  0
 22 23  1  0
 23 24  2  0
 24 25  1  0
 25 26  1  0
 25 27  2  0
 15 28  2  0
 28 29  1  0
  5 30  1  0
 30 31  2  0
 31  2  1  0
 29  9  2  0
 29 12  1  0
 20 16  1  0
 27 21  1  0
M  END
>  <Compound_ID>  (145) 
CHEMBL4107010

>  <Molecule Name>  (145) 
nan

>  <Molecular Weight>  (145) 
416.46

>  <AlogP>  (145) 
4.17

>  <Smiles>  (145) 
Cc1ccc(C(=O)Nc2cnn3ccc(N4CCC[C@@H]4c4cccc(F)c4)nc23)cn1

>  <Standard Type>  (145) 
IC50

>  <Standard Relation>  (145) 
'='

>  <Standard Units>  (145) 
nM

>  <Standard Value>  (145) 
47.0

>  <Assay ChEMBL ID>  (145) 
CHEMBL3887076

>  <Assay Description>  (145) 
ELISA Assay: An enzyme-linked immunosorbant assay (ELISA) was used to assess TrkA kinase activity in the presence of inhibitors. Immulon 4HBX 384-well microtiter plates (Thermo part #8755) were coated with a 0.025 mg/mL solution of poly (Glu, Ala, Tyr; 6:3:1; Sigma P3899). Various concentrations of test compound, 2.5 nM TrkA (Invitrogen Corp., histidine-tagged recombinant human TrkA, cytoplasmic domain), and 500 uM ATP were incubated for 25 minutes at ambient temperature in the coated plates while shaking. The assay buffer consisted of 25 mM MOPS pH 7.5, 0.005% (v/v) Triton X-100 and 5 mM MgCl2. The reaction mixture was removed from the plate by washing with PBS containing 0.1% (v/v) Tween 20. The phosphorylated reaction product was detected using 0.2 ug/mL of a phosphotyrosine specific monoclonal antibody (clone PY20) conjugated to horseradish peroxidase in conjunction with the TMB Peroxidase Substrate System (KPL).

>  <BAO Format ID>  (145) 
BAO_0000357

>  <BAO Label>  (145) 
single protein format

>  <Assay Organism>  (145) 
None

>  <Target ChEMBL ID>  (145) 
CHEMBL2815

>  <Target Name>  (145) 
Nerve growth factor receptor Trk-A

>  <Target Organism>  (145) 
Homo sapiens

>  <Target Type>  (145) 
SINGLE PROTEIN

>  <Document ChEMBL ID>  (145) 
CHEMBL3886151

>  <Source Description>  (145) 
BindingDB Database

>  <Document Journal>  (145) 
nan

>  <Document Year>  (145) 
2014.0

>  <Active>  (145) 
1.0

>  <bits>  (145) 
<rdkit.DataStructs.cDataStructs.ExplicitBitVect object at 0x00000159F60373E0>

>  <Group>  (145) 
G2

$$$$

     RDKit          2D

 26 29  0  0  0  0  0  0  0  0999 V2000
   -2.9520   -4.6564    0.0000 N   0  0  0  0  0  0  0  0  0  0  0  0
   -2.6401   -3.1891    0.0000 C   0  0  0  0  0  0  0  0  0  0  0  0
   -3.7548   -2.1855    0.0000 O   0  0  0  0  0  0  0  0  0  0  0  0
   -1.2135   -2.7256    0.0000 C   0  0  0  0  0  0  0  0  0  0  0  0
   -0.0000   -3.6073    0.0000 C   0  0  0  0  0  0  0  0  0  0  0  0
    1.2135   -2.7256    0.0000 N   0  0  0  0  0  0  0  0  0  0  0  0
    0.7500   -1.2990    0.0000 N   0  0  0  0  0  0  0  0  0  0  0  0
    1.5000    0.0000    0.0000 C   0  0  0  0  0  0  0  0  0  0  0  0
    0.7500    1.2990    0.0000 C   0  0  0  0  0  0  0  0  0  0  0  0
   -0.7500    1.2990    0.0000 C   0  0  0  0  0  0  0  0  0  0  0  0
   -1.5000    2.5981    0.0000 N   0  0  0  0  0  0  0  0  0  0  0  0
   -2.9918    2.7549    0.0000 C   0  0  0  0  0  0  0  0  0  0  0  0
   -3.3037    4.2221    0.0000 C   0  0  0  0  0  0  0  0  0  0  0  0
   -2.0046    4.9721    0.0000 C   0  0  0  0  0  0  0  0  0  0  0  0
   -0.8899    3.9684    0.0000 C   0  0  0  0  0  0  0  0  0  0  0  0
    0.5773    4.2803    0.0000 C   0  0  0  0  0  0  0  0  0  0  0  0
    1.5810    3.1655    0.0000 C   0  0  0  0  0  0  0  0  0  0  0  0
    3.0482    3.4774    0.0000 C   0  0  0  0  0  0  0  0  0  0  0  0
    4.0519    2.3627    0.0000 F   0  0  0  0  0  0  0  0  0  0  0  0
    3.5118    4.9040    0.0000 C   0  0  0  0  0  0  0  0  0  0  0  0
    2.5081    6.0187    0.0000 N   0  0  0  0  0  0  0  0  0  0  0  0
    1.0409    5.7068    0.0000 C   0  0  0  0  0  0  0  0  0  0  0  0
    0.0372    6.8216    0.0000 C   0  0  0  0  0  0  0  0  0  0  0  0
    0.5007    8.2481    0.0000 O   0  0  0  0  0  0  0  0  0  0  0  0
   -1.5000    0.0000    0.0000 N   0  0  0  0  0  0  0  0  0  0  0  0
   -0.7500   -1.2990    0.0000 C   0  0  0  0  0  0  0  0  0  0  0  0
  1  2  1  0
  2  3  2  0
  2  4  1  0
  4  5  1  0
  5  6  2  0
  6  7  1  0
  7  8  1  0
  8  9  2  0
  9 10  1  0
 10 11  1  0
 11 12  1  0
 12 13  1  0
 13 14  1  0
 14 15  1  0
 15 16  1  0
 16 17  2  0
 17 18  1  0
 18 19  1  0
 18 20  2  0
 20 21  1  0
 21 22  2  0
 22 23  1  0
 23 24  1  0
 10 25  2  0
 25 26  1  0
 26  4  2  0
 26  7  1  0
 15 11  1  0
 22 16  1  0
M  END
>  <Compound_ID>  (146) 
CHEMBL3675957

>  <Molecule Name>  (146) 
nan

>  <Molecular Weight>  (146) 
356.36

>  <AlogP>  (146) 
1.2

>  <Smiles>  (146) 
NC(=O)c1cnn2ccc(N3CCCC3c3cc(F)cnc3CO)nc12

>  <Standard Type>  (146) 
IC50

>  <Standard Relation>  (146) 
'='

>  <Standard Units>  (146) 
nM

>  <Standard Value>  (146) 
2.55

>  <Assay ChEMBL ID>  (146) 
CHEMBL3887070

>  <Assay Description>  (146) 
ELISA Assay: An enzyme-linked immunosorbant assay (ELISA) was used to assess TrkA kinase activity in the presence of inhibitors. Immulon 4HBX 384-well microtiter plates (Thermo part #8755) were coated with a 0.025 mg/mL solution of poly (Glu, Ala, Tyr; 6:3:1; Sigma P3899). Various concentrations of test compound, 2.5 nM TrkA (Invitrogen Corp., histidine-tagged recombinant human TrkA, cytoplasmic domain), and 500 uM ATP were incubated for 25 minutes at ambient temperature in the coated plates while shaking The assay buffer consisted of 25 mM MOPS pH 7.5, 0.005% (v/v) Triton X-100 and 5 mM MgCl2. The reaction mixture was removed from the plate by washing with PBS containing 0.1% (v/v) Tween 20. The phosphorylated reaction product was detected using 0.2 ug/mL of a phosphotyrosine specific monoclonal antibody (clone PY20) conjugated to horseradish peroxidase in conjunction with the TMB Peroxidase Substrate System (KPL).

>  <BAO Format ID>  (146) 
BAO_0000357

>  <BAO Label>  (146) 
single protein format

>  <Assay Organism>  (146) 
None

>  <Target ChEMBL ID>  (146) 
CHEMBL2815

>  <Target Name>  (146) 
Nerve growth factor receptor Trk-A

>  <Target Organism>  (146) 
Homo sapiens

>  <Target Type>  (146) 
SINGLE PROTEIN

>  <Document ChEMBL ID>  (146) 
CHEMBL3638907

>  <Source Description>  (146) 
BindingDB Database

>  <Document Journal>  (146) 
nan

>  <Document Year>  (146) 
2014.0

>  <Active>  (146) 
1.0

>  <bits>  (146) 
<rdkit.DataStructs.cDataStructs.ExplicitBitVect object at 0x00000159F6036810>

>  <Group>  (146) 
G2

$$$$

     RDKit          2D

 32 36  0  0  0  0  0  0  0  0999 V2000
   -7.8555   -8.9814    0.0000 C   0  0  0  0  0  0  0  0  0  0  0  0
   -6.4289   -8.5179    0.0000 O   0  0  0  0  0  0  0  0  0  0  0  0
   -6.1170   -7.0506    0.0000 C   0  0  0  0  0  0  0  0  0  0  0  0
   -7.2317   -6.0469    0.0000 C   0  0  0  0  0  0  0  0  0  0  0  0
   -6.9199   -4.5797    0.0000 C   0  0  0  0  0  0  0  0  0  0  0  0
   -5.4933   -4.1162    0.0000 C   0  0  0  0  0  0  0  0  0  0  0  0
   -4.3786   -5.1199    0.0000 C   0  0  0  0  0  0  0  0  0  0  0  0
   -2.9520   -4.6564    0.0000 C   0  0  0  0  0  0  0  0  0  0  0  0
   -1.8373   -5.6601    0.0000 O   0  0  0  0  0  0  0  0  0  0  0  0
   -2.6401   -3.1891    0.0000 N   0  0  0  0  0  0  0  0  0  0  0  0
   -1.2135   -2.7256    0.0000 C   0  0  0  0  0  0  0  0  0  0  0  0
   -0.0000   -3.6073    0.0000 C   0  0  0  0  0  0  0  0  0  0  0  0
    1.2135   -2.7256    0.0000 N   0  0  0  0  0  0  0  0  0  0  0  0
    0.7500   -1.2990    0.0000 N   0  0  0  0  0  0  0  0  0  0  0  0
    1.5000    0.0000    0.0000 C   0  0  0  0  0  0  0  0  0  0  0  0
    0.7500    1.2990    0.0000 C   0  0  0  0  0  0  0  0  0  0  0  0
   -0.7500    1.2990    0.0000 C   0  0  0  0  0  0  0  0  0  0  0  0
   -1.5000    2.5981    0.0000 N   0  0  0  0  0  0  0  0  0  0  0  0
   -2.9918    2.7549    0.0000 C   0  0  0  0  0  0  0  0  0  0  0  0
   -3.3037    4.2221    0.0000 C   0  0  0  0  0  0  0  0  0  0  0  0
   -2.0046    4.9721    0.0000 C   0  0  0  0  0  0  0  0  0  0  0  0
   -0.8899    3.9684    0.0000 C   0  0  0  0  0  0  0  0  0  0  0  0
    0.5773    4.2803    0.0000 C   0  0  0  0  0  0  0  0  0  0  0  0
    1.5810    3.1655    0.0000 C   0  0  0  0  0  0  0  0  0  0  0  0
    3.0482    3.4774    0.0000 C   0  0  0  0  0  0  0  0  0  0  0  0
    3.5118    4.9040    0.0000 C   0  0  0  0  0  0  0  0  0  0  0  0
    2.5081    6.0187    0.0000 C   0  0  0  0  0  0  0  0  0  0  0  0
    2.9716    7.4453    0.0000 F   0  0  0  0  0  0  0  0  0  0  0  0
    1.0409    5.7068    0.0000 C   0  0  0  0  0  0  0  0  0  0  0  0
   -1.5000    0.0000    0.0000 N   0  0  0  0  0  0  0  0  0  0  0  0
   -0.7500   -1.2990    0.0000 C   0  0  0  0  0  0  0  0  0  0  0  0
   -4.6904   -6.5871    0.0000 N   0  0  0  0  0  0  0  0  0  0  0  0
  1  2  1  0
  2  3  1  0
  3  4  2  0
  4  5  1  0
  5  6  2  0
  6  7  1  0
  7  8  1  0
  8  9  2  0
  8 10  1  0
 10 11  1  0
 11 12  1  0
 12 13  2  0
 13 14  1  0
 14 15  1  0
 15 16  2  0
 16 17  1  0
 17 18  1  0
 18 19  1  0
 19 20  1  0
 20 21  1  0
 21 22  1  0
 22 23  1  6
 23 24  2  0
 24 25  1  0
 25 26  2  0
 26 27  1  0
 27 28  1  0
 27 29  2  0
 17 30  2  0
 30 31  1  0
  7 32  2  0
 32  3  1  0
 31 11  2  0
 31 14  1  0
 22 18  1  0
 29 23  1  0
M  END
>  <Compound_ID>  (147) 
CHEMBL4111207

>  <Molecule Name>  (147) 
nan

>  <Molecular Weight>  (147) 
432.46

>  <AlogP>  (147) 
3.87

>  <Smiles>  (147) 
COc1cccc(C(=O)Nc2cnn3ccc(N4CCC[C@@H]4c4cccc(F)c4)nc23)n1

>  <Standard Type>  (147) 
IC50

>  <Standard Relation>  (147) 
'='

>  <Standard Units>  (147) 
nM

>  <Standard Value>  (147) 
7.4

>  <Assay ChEMBL ID>  (147) 
CHEMBL3887076

>  <Assay Description>  (147) 
ELISA Assay: An enzyme-linked immunosorbant assay (ELISA) was used to assess TrkA kinase activity in the presence of inhibitors. Immulon 4HBX 384-well microtiter plates (Thermo part #8755) were coated with a 0.025 mg/mL solution of poly (Glu, Ala, Tyr; 6:3:1; Sigma P3899). Various concentrations of test compound, 2.5 nM TrkA (Invitrogen Corp., histidine-tagged recombinant human TrkA, cytoplasmic domain), and 500 uM ATP were incubated for 25 minutes at ambient temperature in the coated plates while shaking. The assay buffer consisted of 25 mM MOPS pH 7.5, 0.005% (v/v) Triton X-100 and 5 mM MgCl2. The reaction mixture was removed from the plate by washing with PBS containing 0.1% (v/v) Tween 20. The phosphorylated reaction product was detected using 0.2 ug/mL of a phosphotyrosine specific monoclonal antibody (clone PY20) conjugated to horseradish peroxidase in conjunction with the TMB Peroxidase Substrate System (KPL).

>  <BAO Format ID>  (147) 
BAO_0000357

>  <BAO Label>  (147) 
single protein format

>  <Assay Organism>  (147) 
None

>  <Target ChEMBL ID>  (147) 
CHEMBL2815

>  <Target Name>  (147) 
Nerve growth factor receptor Trk-A

>  <Target Organism>  (147) 
Homo sapiens

>  <Target Type>  (147) 
SINGLE PROTEIN

>  <Document ChEMBL ID>  (147) 
CHEMBL3886151

>  <Source Description>  (147) 
BindingDB Database

>  <Document Journal>  (147) 
nan

>  <Document Year>  (147) 
2014.0

>  <Active>  (147) 
1.0

>  <bits>  (147) 
<rdkit.DataStructs.cDataStructs.ExplicitBitVect object at 0x00000159F6035310>

>  <Group>  (147) 
G2

$$$$

     RDKit          2D

 46 52  0  0  0  0  0  0  0  0999 V2000
    3.2353    7.1425    0.0000 C   0  0  0  0  0  0  0  0  0  0  0  0
    2.2316    8.2572    0.0000 C   0  0  0  0  0  0  0  0  0  0  0  0
    1.2279    9.3720    0.0000 C   0  0  0  0  0  0  0  0  0  0  0  0
    3.3463    9.2609    0.0000 C   0  0  0  0  0  0  0  0  0  0  0  0
    1.1168    7.2536    0.0000 C   0  0  0  0  0  0  0  0  0  0  0  0
   -0.3504    7.5654    0.0000 C   0  0  0  0  0  0  0  0  0  0  0  0
   -1.1004    6.2664    0.0000 C   0  0  0  0  0  0  0  0  0  0  0  0
   -2.5922    6.1096    0.0000 N   0  0  0  0  0  0  0  0  0  0  0  0
   -3.4738    7.3231    0.0000 C   0  0  0  0  0  0  0  0  0  0  0  0
   -2.8637    8.6934    0.0000 O   0  0  0  0  0  0  0  0  0  0  0  0
   -4.9656    7.1663    0.0000 N   0  0  0  0  0  0  0  0  0  0  0  0
   -5.8473    8.3798    0.0000 C   0  0  0  0  0  0  0  0  0  0  0  0
   -5.2372    9.7502    0.0000 C   0  0  0  0  0  0  0  0  0  0  0  0
   -6.1189   10.9637    0.0000 N   0  0  0  0  0  0  0  0  0  0  0  0
   -7.6107   10.8069    0.0000 C   0  0  0  0  0  0  0  0  0  0  0  0
   -8.4923   12.0204    0.0000 O   0  0  0  0  0  0  0  0  0  0  0  0
   -7.8822   13.3907    0.0000 C   0  0  0  0  0  0  0  0  0  0  0  0
   -6.3904   13.5475    0.0000 C   0  0  0  0  0  0  0  0  0  0  0  0
   -5.7803   14.9179    0.0000 C   0  0  0  0  0  0  0  0  0  0  0  0
   -6.6620   16.1314    0.0000 C   0  0  0  0  0  0  0  0  0  0  0  0
   -6.0519   17.5017    0.0000 C   0  0  0  0  0  0  0  0  0  0  0  0
   -6.8019   18.8007    0.0000 C   0  0  0  0  0  0  0  0  0  0  0  0
   -5.7982   19.9155    0.0000 N   0  0  0  0  0  0  0  0  0  0  0  0
   -4.4279   19.3053    0.0000 C   0  0  0  0  0  0  0  0  0  0  0  0
   -3.1289   20.0553    0.0000 N   0  0  0  0  0  0  0  0  0  0  0  0
   -2.9721   21.5471    0.0000 C   0  0  0  0  0  0  0  0  0  0  0  0
   -1.5048   21.8590    0.0000 C   0  0  0  0  0  0  0  0  0  0  0  0
   -0.7548   20.5600    0.0000 C   0  0  0  0  0  0  0  0  0  0  0  0
   -1.7585   19.4452    0.0000 C   0  0  0  0  0  0  0  0  0  0  0  0
   -1.4467   17.9780    0.0000 O   0  0  0  0  0  0  0  0  0  0  0  0
   -4.5847   17.8136    0.0000 S   0  0  0  0  0  0  0  0  0  0  0  0
   -8.1538   15.9746    0.0000 C   0  0  0  0  0  0  0  0  0  0  0  0
   -8.7639   14.6043    0.0000 C   0  0  0  0  0  0  0  0  0  0  0  0
   -8.2208    9.4366    0.0000 N   0  0  0  0  0  0  0  0  0  0  0  0
   -7.3391    8.2231    0.0000 C   0  0  0  0  0  0  0  0  0  0  0  0
   -0.0967    5.1517    0.0000 N   0  0  0  0  0  0  0  0  0  0  0  0
   -0.4086    3.6844    0.0000 C   0  0  0  0  0  0  0  0  0  0  0  0
   -1.8351    3.2209    0.0000 C   0  0  0  0  0  0  0  0  0  0  0  0
   -2.1470    1.7537    0.0000 C   0  0  0  0  0  0  0  0  0  0  0  0
   -1.0323    0.7500    0.0000 C   0  0  0  0  0  0  0  0  0  0  0  0
    0.3943    1.2135    0.0000 C   0  0  0  0  0  0  0  0  0  0  0  0
    0.7062    2.6807    0.0000 C   0  0  0  0  0  0  0  0  0  0  0  0
    1.2760    0.0000    0.0000 C   0  0  0  0  0  0  0  0  0  0  0  0
    0.3943   -1.2135    0.0000 C   0  0  0  0  0  0  0  0  0  0  0  0
   -1.0323   -0.7500    0.0000 O   0  0  0  0  0  0  0  0  0  0  0  0
    1.2736    5.7618    0.0000 N   0  0  0  0  0  0  0  0  0  0  0  0
  1  2  1  0
  2  3  1  0
  2  4  1  0
  2  5  1  0
  5  6  1  0
  6  7  2  0
  7  8  1  0
  8  9  1  0
  9 10  2  0
  9 11  1  0
 11 12  1  0
 12 13  2  0
 13 14  1  0
 14 15  2  0
 15 16  1  0
 16 17  1  0
 17 18  2  0
 18 19  1  0
 19 20  2  0
 20 21  1  0
 21 22  2  0
 22 23  1  0
 23 24  2  0
 24 25  1  0
 25 26  1  0
 26 27  1  0
 27 28  1  0
 28 29  1  0
 29 30  2  0
 24 31  1  0
 20 32  1  0
 32 33  2  0
 15 34  1  0
 34 35  2  0
  7 36  1  0
 36 37  1  0
 37 38  2  0
 38 39  1  0
 39 40  2  0
 40 41  1  0
 41 42  2  0
 41 43  1  0
 43 44  1  0
 44 45  1  0
 36 46  1  0
 46  5  2  0
 35 12  1  0
 42 37  1  0
 33 17  1  0
 45 40  1  0
 31 21  1  0
 29 25  1  0
M  END
>  <Compound_ID>  (148) 
CHEMBL3916029

>  <Molecule Name>  (148) 
nan

>  <Molecular Weight>  (148) 
636.74

>  <AlogP>  (148) 
6.58

>  <Smiles>  (148) 
CC(C)(C)c1cc(NC(=O)Nc2cnc(Oc3ccc(-c4cnc(N5CCCC5=O)s4)cc3)nc2)n(-c2ccc3c(c2)CCO3)n1

>  <Standard Type>  (148) 
IC50

>  <Standard Relation>  (148) 
'='

>  <Standard Units>  (148) 
nM

>  <Standard Value>  (148) 
20.0

>  <Assay ChEMBL ID>  (148) 
CHEMBL3887906

>  <Assay Description>  (148) 
LanthaScreen Kinase Assay: TrkA-inhibiting activity was measured according to the following method using LanthaScreen kinase assay reagents (Invitrogen; Fluorescein-Poly GT, LanthaScreen Tb-PY20 and TR-FRET Dilution Buffer), TrkA (Invitrogen), ATP (Sigma-Aldrich), a kinase reaction buffer (50 mM HEPES buffer (Sigma-Aldrich) (pH 7.5) containing 0.01% Brij35 (Sigma-Aldrich), 10 mM MgCl2 (Sigma-Aldrich) and 1 mM EGTA (Sigma-Aldrich)) and 0.5 M EDTA (pH 8.0) (Invitrogen).The present compound was dissolved in dimethylsulfoxide (hereinafter abbreviated as DMSO) to prepare a 10 mM solution. The test compound at 10 mM was distributed into a 96-well plate and serially diluted with DMSO with the geometrical ratio of 3. The serial dilutions (DMSO solutions) were diluted with the kinase reaction buffer to 20-fold to prepare solutions of the present compound with 5-times concentrations (DMSO concentration: 5%). TrkA was diluted with the kinase reaction buffer to prepare a solution at 38.5 ng/mL (enzyme solution). Adenosine

>  <BAO Format ID>  (148) 
BAO_0000357

>  <BAO Label>  (148) 
single protein format

>  <Assay Organism>  (148) 
None

>  <Target ChEMBL ID>  (148) 
CHEMBL2815

>  <Target Name>  (148) 
Nerve growth factor receptor Trk-A

>  <Target Organism>  (148) 
Homo sapiens

>  <Target Type>  (148) 
SINGLE PROTEIN

>  <Document ChEMBL ID>  (148) 
CHEMBL3886498

>  <Source Description>  (148) 
BindingDB Database

>  <Document Journal>  (148) 
nan

>  <Document Year>  (148) 
2016.0

>  <Active>  (148) 
1.0

>  <bits>  (148) 
<rdkit.DataStructs.cDataStructs.ExplicitBitVect object at 0x00000159F6035070>

>  <Group>  (148) 
G2

$$$$

     RDKit          2D

 34 41  0  0  0  0  0  0  0  0999 V2000
    5.8748   -2.0765    0.0000 C   0  0  0  0  0  0  0  0  0  0  0  0
    4.4288   -2.4756    0.0000 O   0  0  0  0  0  0  0  0  0  0  0  0
    4.0514   -3.9273    0.0000 C   0  0  0  0  0  0  0  0  0  0  0  0
    5.5347   -4.1509    0.0000 C   0  0  0  0  0  0  0  0  0  0  0  0
    6.4699   -2.9781    0.0000 O   0  0  0  0  0  0  0  0  0  0  0  0
    3.9841   -5.4258    0.0000 C   0  0  0  0  0  0  0  0  0  0  0  0
    2.5382   -5.8249    0.0000 C   0  0  0  0  0  0  0  0  0  0  0  0
    3.2490   -4.5040    0.0000 O   0  0  0  0  0  0  0  0  0  0  0  0
    2.6595   -3.1247    0.0000 C   0  0  0  0  0  0  0  0  0  0  0  0
    3.6464   -1.9951    0.0000 C   0  0  0  0  0  0  0  0  0  0  0  0
    1.2135   -2.7256    0.0000 N   0  0  0  0  0  0  0  0  0  0  0  0
    0.7500   -1.2990    0.0000 C   0  0  0  0  0  0  0  0  0  0  0  0
    1.5000    0.0000    0.0000 C   0  0  0  0  0  0  0  0  0  0  0  0
    0.7500    1.2990    0.0000 C   0  0  0  0  0  0  0  0  0  0  0  0
   -0.7500    1.2990    0.0000 C   0  0  0  0  0  0  0  0  0  0  0  0
   -1.5000    0.0000    0.0000 C   0  0  0  0  0  0  0  0  0  0  0  0
   -0.7500   -1.2990    0.0000 C   0  0  0  0  0  0  0  0  0  0  0  0
   -1.2135   -2.7256    0.0000 C   0  0  0  0  0  0  0  0  0  0  0  0
   -2.5518   -3.5691    0.0000 C   0  0  0  0  0  0  0  0  0  0  0  0
   -2.6191   -5.0676    0.0000 C   0  0  0  0  0  0  0  0  0  0  0  0
   -1.3550   -5.8751    0.0000 C   0  0  0  0  0  0  0  0  0  0  0  0
   -1.0212   -7.3375    0.0000 C   0  0  0  0  0  0  0  0  0  0  0  0
   -1.8846   -8.5641    0.0000 C   0  0  0  0  0  0  0  0  0  0  0  0
   -1.2541   -9.9251    0.0000 C   0  0  0  0  0  0  0  0  0  0  0  0
    0.2399  -10.0596    0.0000 C   0  0  0  0  0  0  0  0  0  0  0  0
    1.1033   -8.8330    0.0000 C   0  0  0  0  0  0  0  0  0  0  0  0
    0.4728   -7.4720    0.0000 C   0  0  0  0  0  0  0  0  0  0  0  0
    1.0623   -6.0927    0.0000 N   0  0  0  0  0  0  0  0  0  0  0  0
   -0.0673   -5.1058    0.0000 C   0  0  0  0  0  0  0  0  0  0  0  0
   -0.0000   -3.6073    0.0000 C   0  0  0  0  0  0  0  0  0  0  0  0
   -4.0650   -5.4667    0.0000 C   0  0  0  0  0  0  0  0  0  0  0  0
   -4.5921   -6.8710    0.0000 O   0  0  0  0  0  0  0  0  0  0  0  0
   -4.8913   -4.2148    0.0000 N   0  0  0  0  0  0  0  0  0  0  0  0
   -3.9561   -3.0421    0.0000 C   0  0  0  0  0  0  0  0  0  0  0  0
  1  2  1  0
  2  3  1  0
  3  4  1  1
  4  5  1  0
  3  6  1  0
  7  6  1  6
  7  8  1  0
  8  9  1  0
  9 10  1  1
  9 11  1  0
 11 12  1  0
 12 13  2  0
 13 14  1  0
 14 15  2  0
 15 16  1  0
 16 17  2  0
 17 18  1  0
 18 19  2  0
 19 20  1  0
 20 21  2  0
 21 22  1  0
 22 23  2  0
 23 24  1  0
 24 25  2  0
 25 26  1  0
 26 27  2  0
 27 28  1  0
 28 29  1  0
 29 30  2  0
 20 31  1  0
 31 32  2  0
 31 33  1  0
 33 34  1  0
  9  3  1  0
 30 11  1  0
 28  7  1  0
 17 12  1  0
 30 18  1  0
 34 19  1  0
 29 21  1  0
 27 22  1  0
M  END
>  <Compound_ID>  (149) 
CHEMBL2113064

>  <Molecule Name>  (149) 
nan

>  <Molecular Weight>  (149) 
453.5

>  <AlogP>  (149) 
4.13

>  <Smiles>  (149) 
CO[C@]1(CO)C[C@H]2O[C@]1(C)n1c3ccccc3c3c4c(c5c6ccccc6n2c5c31)C(=O)NC4

>  <Standard Type>  (149) 
IC50

>  <Standard Relation>  (149) 
'='

>  <Standard Units>  (149) 
nM

>  <Standard Value>  (149) 
2.9

>  <Assay ChEMBL ID>  (149) 
CHEMBL832085

>  <Assay Description>  (149) 
Inhibition of baculovirus expressed human trkA

>  <BAO Format ID>  (149) 
BAO_0000357

>  <BAO Label>  (149) 
single protein format

>  <Assay Organism>  (149) 
Homo sapiens

>  <Target ChEMBL ID>  (149) 
CHEMBL2815

>  <Target Name>  (149) 
Nerve growth factor receptor Trk-A

>  <Target Organism>  (149) 
Homo sapiens

>  <Target Type>  (149) 
SINGLE PROTEIN

>  <Document ChEMBL ID>  (149) 
CHEMBL1139527

>  <Source Description>  (149) 
Scientific Literature

>  <Document Journal>  (149) 
J Med Chem

>  <Document Year>  (149) 
2005.0

>  <Active>  (149) 
1.0

>  <bits>  (149) 
<rdkit.DataStructs.cDataStructs.ExplicitBitVect object at 0x00000159F6034A50>

>  <Group>  (149) 
G2

$$$$

     RDKit          2D

 31 34  0  0  0  0  0  0  0  0999 V2000
  -11.5035   -9.1506    0.0000 C   0  0  0  0  0  0  0  0  0  0  0  0
  -10.6218   -7.9371    0.0000 C   0  0  0  0  0  0  0  0  0  0  0  0
   -9.1218   -7.9371    0.0000 C   0  0  0  0  0  0  0  0  0  0  0  0
   -8.2402   -9.1506    0.0000 Cl  0  0  0  0  0  0  0  0  0  0  0  0
   -8.6583   -6.5105    0.0000 C   0  0  0  0  0  0  0  0  0  0  0  0
   -7.2317   -6.0469    0.0000 C   0  0  0  0  0  0  0  0  0  0  0  0
   -6.9199   -4.5797    0.0000 O   0  0  0  0  0  0  0  0  0  0  0  0
   -6.1170   -7.0506    0.0000 N   0  0  0  0  0  0  0  0  0  0  0  0
   -4.6904   -6.5871    0.0000 C   0  0  0  0  0  0  0  0  0  0  0  0
   -3.5757   -7.5908    0.0000 C   0  0  0  0  0  0  0  0  0  0  0  0
   -2.1491   -7.1273    0.0000 N   0  0  0  0  0  0  0  0  0  0  0  0
   -1.8373   -5.6601    0.0000 C   0  0  0  0  0  0  0  0  0  0  0  0
   -2.9520   -4.6564    0.0000 C   0  0  0  0  0  0  0  0  0  0  0  0
   -2.6401   -3.1891    0.0000 C   0  0  0  0  0  0  0  0  0  0  0  0
   -3.7548   -2.1855    0.0000 O   0  0  0  0  0  0  0  0  0  0  0  0
   -1.2135   -2.7256    0.0000 C   0  0  0  0  0  0  0  0  0  0  0  0
   -0.0000   -3.6073    0.0000 C   0  0  0  0  0  0  0  0  0  0  0  0
    1.2135   -2.7256    0.0000 N   0  0  0  0  0  0  0  0  0  0  0  0
    2.6401   -3.1891    0.0000 C   0  0  0  0  0  0  0  0  0  0  0  0
    2.9520   -4.6564    0.0000 C   0  0  0  0  0  0  0  0  0  0  0  0
    3.7548   -2.1855    0.0000 C   0  0  0  0  0  0  0  0  0  0  0  0
    0.7500   -1.2990    0.0000 C   0  0  0  0  0  0  0  0  0  0  0  0
    1.5000    0.0000    0.0000 N   0  0  0  0  0  0  0  0  0  0  0  0
    0.7500    1.2990    0.0000 C   0  0  0  0  0  0  0  0  0  0  0  0
   -0.7500    1.2990    0.0000 N   0  0  0  0  0  0  0  0  0  0  0  0
   -1.5000    0.0000    0.0000 C   0  0  0  0  0  0  0  0  0  0  0  0
   -0.7500   -1.2990    0.0000 C   0  0  0  0  0  0  0  0  0  0  0  0
   -4.3786   -5.1199    0.0000 C   0  0  0  0  0  0  0  0  0  0  0  0
   -9.8718   -5.6288    0.0000 N   0  0  0  0  0  0  0  0  0  0  0  0
  -11.0854   -6.5105    0.0000 N   0  0  0  0  0  0  0  0  0  0  0  0
  -12.5120   -6.0469    0.0000 C   0  0  0  0  0  0  0  0  0  0  0  0
  1  2  1  0
  2  3  2  0
  3  4  1  0
  3  5  1  0
  5  6  1  0
  6  7  2  0
  6  8  1  0
  8  9  1  0
  9 10  2  0
 10 11  1  0
 11 12  2  0
 12 13  1  0
 13 14  1  0
 14 15  2  0
 14 16  1  0
 16 17  2  0
 17 18  1  0
 18 19  1  0
 19 20  1  0
 19 21  1  0
 18 22  1  0
 22 23  2  0
 23 24  1  0
 24 25  2  0
 25 26  1  0
 26 27  2  0
 13 28  2  0
  5 29  2  0
 29 30  1  0
 30 31  1  0
 30  2  1  0
 28  9  1  0
 27 16  1  0
 27 22  1  0
M  END
>  <Compound_ID>  (150) 
CHEMBL3666425

>  <Molecule Name>  (150) 
nan

>  <Molecular Weight>  (150) 
437.89

>  <AlogP>  (150) 
3.59

>  <Smiles>  (150) 
Cc1c(Cl)c(C(=O)Nc2cncc(C(=O)c3cn(C(C)C)c4ncncc34)c2)nn1C

>  <Standard Type>  (150) 
IC50

>  <Standard Relation>  (150) 
'='

>  <Standard Units>  (150) 
nM

>  <Standard Value>  (150) 
47.7

>  <Assay ChEMBL ID>  (150) 
CHEMBL3887033

>  <Assay Description>  (150) 
Enzyme Assay: Isolated TRK Enzyme assays use the HTRF KinEASE-TK kit (Cisbio Cat# 62TK0PEJ) with recombinant His-tagged cytoplasmic domains of each TRK receptor sourced from Invitrogen (see table below). This activity-assay measures the phosphorylation of tyrosine residues within a substrate from the HTRF kit which has been validated by Cisbio for a variety of tyrosine kinases including the TRK receptors. Assay details: Target:TRKA; Invitrogen Cat# PV3144; Amino acids:aa 441-796; FAC enzyme:4nM; FAC ATP:40uM; Assay Reaction Time:35min.

>  <BAO Format ID>  (150) 
BAO_0000357

>  <BAO Label>  (150) 
single protein format

>  <Assay Organism>  (150) 
None

>  <Target ChEMBL ID>  (150) 
CHEMBL2815

>  <Target Name>  (150) 
Nerve growth factor receptor Trk-A

>  <Target Organism>  (150) 
Homo sapiens

>  <Target Type>  (150) 
SINGLE PROTEIN

>  <Document ChEMBL ID>  (150) 
CHEMBL3639348

>  <Source Description>  (150) 
BindingDB Database

>  <Document Journal>  (150) 
nan

>  <Document Year>  (150) 
2014.0

>  <Active>  (150) 
1.0

>  <bits>  (150) 
<rdkit.DataStructs.cDataStructs.ExplicitBitVect object at 0x00000159F60359A0>

>  <Group>  (150) 
G2

$$$$

     RDKit          2D

 32 36  0  0  0  0  0  0  0  0999 V2000
   -1.8373   -5.6601    0.0000 O   0  0  0  0  0  0  0  0  0  0  0  0
   -2.9520   -4.6564    0.0000 C   0  0  0  0  0  0  0  0  0  0  0  0
   -4.3786   -5.1199    0.0000 N   0  0  0  0  0  0  0  0  0  0  0  0
   -4.6904   -6.5871    0.0000 C   0  0  0  0  0  0  0  0  0  0  0  0
   -6.1170   -7.0506    0.0000 C   0  0  0  0  0  0  0  0  0  0  0  0
   -6.4289   -8.5179    0.0000 C   0  0  0  0  0  0  0  0  0  0  0  0
   -5.3142   -9.5216    0.0000 C   0  0  0  0  0  0  0  0  0  0  0  0
   -3.8876   -9.0580    0.0000 C   0  0  0  0  0  0  0  0  0  0  0  0
   -3.5757   -7.5908    0.0000 C   0  0  0  0  0  0  0  0  0  0  0  0
   -2.6401   -3.1891    0.0000 N   0  0  0  0  0  0  0  0  0  0  0  0
   -1.2135   -2.7256    0.0000 C   0  0  0  0  0  0  0  0  0  0  0  0
   -0.0000   -3.6073    0.0000 C   0  0  0  0  0  0  0  0  0  0  0  0
    1.2135   -2.7256    0.0000 N   0  0  0  0  0  0  0  0  0  0  0  0
    0.7500   -1.2990    0.0000 C   0  0  0  0  0  0  0  0  0  0  0  0
    1.5000    0.0000    0.0000 C   0  0  0  0  0  0  0  0  0  0  0  0
    0.7500    1.2990    0.0000 C   0  0  0  0  0  0  0  0  0  0  0  0
   -0.7500    1.2990    0.0000 C   0  0  0  0  0  0  0  0  0  0  0  0
   -1.5000    2.5981    0.0000 N   0  0  0  0  0  0  0  0  0  0  0  0
   -2.9918    2.7549    0.0000 C   0  0  0  0  0  0  0  0  0  0  0  0
   -3.3037    4.2221    0.0000 C   0  0  0  0  0  0  0  0  0  0  0  0
   -2.0046    4.9721    0.0000 C   0  0  0  0  0  0  0  0  0  0  0  0
   -0.8899    3.9684    0.0000 C   0  0  0  0  0  0  0  0  0  0  0  0
    0.5773    4.2803    0.0000 C   0  0  0  0  0  0  0  0  0  0  0  0
    1.5810    3.1655    0.0000 C   0  0  0  0  0  0  0  0  0  0  0  0
    3.0482    3.4774    0.0000 C   0  0  0  0  0  0  0  0  0  0  0  0
    4.0519    2.3627    0.0000 F   0  0  0  0  0  0  0  0  0  0  0  0
    3.5118    4.9040    0.0000 C   0  0  0  0  0  0  0  0  0  0  0  0
    2.5081    6.0187    0.0000 C   0  0  0  0  0  0  0  0  0  0  0  0
    1.0409    5.7068    0.0000 C   0  0  0  0  0  0  0  0  0  0  0  0
    0.0372    6.8216    0.0000 F   0  0  0  0  0  0  0  0  0  0  0  0
   -1.5000    0.0000    0.0000 N   0  0  0  0  0  0  0  0  0  0  0  0
   -0.7500   -1.2990    0.0000 N   0  0  0  0  0  0  0  0  0  0  0  0
  1  2  2  0
  2  3  1  0
  3  4  1  0
  4  5  2  0
  5  6  1  0
  6  7  2  0
  7  8  1  0
  8  9  2  0
  2 10  1  0
 10 11  1  0
 11 12  2  0
 12 13  1  0
 13 14  2  0
 14 15  1  0
 15 16  2  0
 16 17  1  0
 17 18  1  0
 18 19  1  0
 19 20  1  0
 20 21  1  0
 21 22  1  0
 22 23  1  6
 23 24  2  0
 24 25  1  0
 25 26  1  0
 25 27  2  0
 27 28  1  0
 28 29  2  0
 29 30  1  0
 17 31  2  0
 31 32  1  0
  9  4  1  0
 32 11  1  0
 32 14  1  0
 22 18  1  0
 29 23  1  0
M  END
>  <Compound_ID>  (151) 
CHEMBL4108297

>  <Molecule Name>  (151) 
nan

>  <Molecular Weight>  (151) 
434.45

>  <AlogP>  (151) 
4.99

>  <Smiles>  (151) 
O=C(Nc1ccccc1)Nc1cnc2ccc(N3CCC[C@@H]3c3cc(F)ccc3F)nn12

>  <Standard Type>  (151) 
IC50

>  <Standard Relation>  (151) 
'='

>  <Standard Units>  (151) 
nM

>  <Standard Value>  (151) 
8.3

>  <Assay ChEMBL ID>  (151) 
CHEMBL3887826

>  <Assay Description>  (151) 
ELISA Assay: An enzyme-linked immunosorbant assay (ELISA) was used to assess TrkA kinase activity in the presence of inhibitors. Immulon 4HBX 384-well microtiter plates (Thermo part #8755) were coated with a 0.025 mg/mL solution of poly (Glu, Ala, Tyr; 6:3:1; Sigma P3899). Various concentrations of test compound, 2.5 nM TrkA (Invitrogen Corp., histidine-tagged recombinant human TrkA, cytoplasmic domain), and 500 uM ATP were incubated for 25 minutes at ambient temperature in the coated plates while shaking. The assay buffer consisted of 25 mM MOPS pH 7.5, 0.005% (v/v) Triton X-100 and 5 mM MgCl2. The reaction mixture was removed from the plate by washing with PBS containing 0.1% (v/v) Tween 20. The phosphorylated reaction product was detected using 0.2 ug/mL of a phosphotyrosine specific monoclonal antibody (clone PY20) conjugated to horseradish peroxidase in conjunction with the TMB Peroxidase Substrate System (KPL).

>  <BAO Format ID>  (151) 
BAO_0000357

>  <BAO Label>  (151) 
single protein format

>  <Assay Organism>  (151) 
None

>  <Target ChEMBL ID>  (151) 
CHEMBL2815

>  <Target Name>  (151) 
Nerve growth factor receptor Trk-A

>  <Target Organism>  (151) 
Homo sapiens

>  <Target Type>  (151) 
SINGLE PROTEIN

>  <Document ChEMBL ID>  (151) 
CHEMBL3886465

>  <Source Description>  (151) 
BindingDB Database

>  <Document Journal>  (151) 
nan

>  <Document Year>  (151) 
2016.0

>  <Active>  (151) 
1.0

>  <bits>  (151) 
<rdkit.DataStructs.cDataStructs.ExplicitBitVect object at 0x00000159F6037B50>

>  <Group>  (151) 
G2

$$$$

     RDKit          2D

 31 34  0  0  0  0  0  0  0  0999 V2000
   -2.9520   -4.6564    0.0000 C   0  0  0  0  0  0  0  0  0  0  0  0
   -2.6401   -3.1891    0.0000 C   0  0  0  0  0  0  0  0  0  0  0  0
   -3.7548   -2.1855    0.0000 C   0  0  0  0  0  0  0  0  0  0  0  0
   -1.2135   -2.7256    0.0000 N   0  0  0  0  0  0  0  0  0  0  0  0
   -0.0000   -3.6073    0.0000 C   0  0  0  0  0  0  0  0  0  0  0  0
    1.2135   -2.7256    0.0000 C   0  0  0  0  0  0  0  0  0  0  0  0
    2.6401   -3.1891    0.0000 C   0  0  0  0  0  0  0  0  0  0  0  0
    3.7548   -2.1855    0.0000 O   0  0  0  0  0  0  0  0  0  0  0  0
    2.9520   -4.6564    0.0000 C   0  0  0  0  0  0  0  0  0  0  0  0
    1.8373   -5.6601    0.0000 C   0  0  0  0  0  0  0  0  0  0  0  0
    2.1491   -7.1273    0.0000 N   0  0  0  0  0  0  0  0  0  0  0  0
    3.5757   -7.5908    0.0000 C   0  0  0  0  0  0  0  0  0  0  0  0
    4.6904   -6.5871    0.0000 C   0  0  0  0  0  0  0  0  0  0  0  0
    6.1170   -7.0506    0.0000 N   0  0  0  0  0  0  0  0  0  0  0  0
    6.4289   -8.5179    0.0000 C   0  0  0  0  0  0  0  0  0  0  0  0
    5.3142   -9.5216    0.0000 O   0  0  0  0  0  0  0  0  0  0  0  0
    7.8555   -8.9814    0.0000 C   0  0  0  0  0  0  0  0  0  0  0  0
    8.1673  -10.4486    0.0000 C   0  0  0  0  0  0  0  0  0  0  0  0
    7.0526  -11.4523    0.0000 C   0  0  0  0  0  0  0  0  0  0  0  0
    7.3645  -12.9195    0.0000 N   0  0  0  0  0  0  0  0  0  0  0  0
    8.7911  -13.3831    0.0000 C   0  0  0  0  0  0  0  0  0  0  0  0
    9.9058  -12.3794    0.0000 C   0  0  0  0  0  0  0  0  0  0  0  0
   11.3324  -12.8429    0.0000 Br  0  0  0  0  0  0  0  0  0  0  0  0
    9.5939  -10.9121    0.0000 C   0  0  0  0  0  0  0  0  0  0  0  0
    4.3786   -5.1199    0.0000 C   0  0  0  0  0  0  0  0  0  0  0  0
    0.7500   -1.2990    0.0000 C   0  0  0  0  0  0  0  0  0  0  0  0
    1.5000    0.0000    0.0000 C   0  0  0  0  0  0  0  0  0  0  0  0
    0.7500    1.2990    0.0000 N   0  0  0  0  0  0  0  0  0  0  0  0
   -0.7500    1.2990    0.0000 C   0  0  0  0  0  0  0  0  0  0  0  0
   -1.5000    0.0000    0.0000 N   0  0  0  0  0  0  0  0  0  0  0  0
   -0.7500   -1.2990    0.0000 C   0  0  0  0  0  0  0  0  0  0  0  0
  1  2  1  0
  2  3  1  0
  2  4  1  0
  4  5  1  0
  5  6  2  0
  6  7  1  0
  7  8  2  0
  7  9  1  0
  9 10  2  0
 10 11  1  0
 11 12  2  0
 12 13  1  0
 13 14  1  0
 14 15  1  0
 15 16  2  0
 15 17  1  0
 17 18  1  0
 18 19  2  0
 19 20  1  0
 20 21  2  0
 21 22  1  0
 22 23  1  0
 22 24  2  0
 13 25  2  0
  6 26  1  0
 26 27  2  0
 27 28  1  0
 28 29  2  0
 29 30  1  0
 30 31  2  0
 31  4  1  0
 25  9  1  0
 31 26  1  0
 24 18  1  0
M  END
>  <Compound_ID>  (152) 
CHEMBL3661544

>  <Molecule Name>  (152) 
nan

>  <Molecular Weight>  (152) 
479.34

>  <AlogP>  (152) 
3.98

>  <Smiles>  (152) 
CC(C)n1cc(C(=O)c2cncc(NC(=O)Cc3cncc(Br)c3)c2)c2cncnc21

>  <Standard Type>  (152) 
IC50

>  <Standard Relation>  (152) 
'='

>  <Standard Units>  (152) 
nM

>  <Standard Value>  (152) 
51.0

>  <Assay ChEMBL ID>  (152) 
CHEMBL3887033

>  <Assay Description>  (152) 
Enzyme Assay: Isolated TRK Enzyme assays use the HTRF KinEASE-TK kit (Cisbio Cat# 62TK0PEJ) with recombinant His-tagged cytoplasmic domains of each TRK receptor sourced from Invitrogen (see table below). This activity-assay measures the phosphorylation of tyrosine residues within a substrate from the HTRF kit which has been validated by Cisbio for a variety of tyrosine kinases including the TRK receptors. Assay details: Target:TRKA; Invitrogen Cat# PV3144; Amino acids:aa 441-796; FAC enzyme:4nM; FAC ATP:40uM; Assay Reaction Time:35min.

>  <BAO Format ID>  (152) 
BAO_0000357

>  <BAO Label>  (152) 
single protein format

>  <Assay Organism>  (152) 
None

>  <Target ChEMBL ID>  (152) 
CHEMBL2815

>  <Target Name>  (152) 
Nerve growth factor receptor Trk-A

>  <Target Organism>  (152) 
Homo sapiens

>  <Target Type>  (152) 
SINGLE PROTEIN

>  <Document ChEMBL ID>  (152) 
CHEMBL3639348

>  <Source Description>  (152) 
BindingDB Database

>  <Document Journal>  (152) 
nan

>  <Document Year>  (152) 
2014.0

>  <Active>  (152) 
1.0

>  <bits>  (152) 
<rdkit.DataStructs.cDataStructs.ExplicitBitVect object at 0x00000159F60350E0>

>  <Group>  (152) 
G2

$$$$

     RDKit          2D

 33 37  0  0  0  0  0  0  0  0999 V2000
   -8.0346   -3.5760    0.0000 C   0  0  0  0  0  0  0  0  0  0  0  0
   -6.9199   -4.5797    0.0000 N   0  0  0  0  0  0  0  0  0  0  0  0
   -5.4933   -4.1162    0.0000 C   0  0  0  0  0  0  0  0  0  0  0  0
   -4.3786   -5.1199    0.0000 C   0  0  0  0  0  0  0  0  0  0  0  0
   -2.9520   -4.6564    0.0000 C   0  0  0  0  0  0  0  0  0  0  0  0
   -1.8373   -5.6601    0.0000 O   0  0  0  0  0  0  0  0  0  0  0  0
   -2.6401   -3.1891    0.0000 N   0  0  0  0  0  0  0  0  0  0  0  0
   -1.2135   -2.7256    0.0000 C   0  0  0  0  0  0  0  0  0  0  0  0
   -0.0000   -3.6073    0.0000 C   0  0  0  0  0  0  0  0  0  0  0  0
    1.2135   -2.7256    0.0000 N   0  0  0  0  0  0  0  0  0  0  0  0
    0.7500   -1.2990    0.0000 C   0  0  0  0  0  0  0  0  0  0  0  0
    1.5000    0.0000    0.0000 C   0  0  0  0  0  0  0  0  0  0  0  0
    0.7500    1.2990    0.0000 C   0  0  0  0  0  0  0  0  0  0  0  0
   -0.7500    1.2990    0.0000 C   0  0  0  0  0  0  0  0  0  0  0  0
   -1.5000    2.5981    0.0000 N   0  0  0  0  0  0  0  0  0  0  0  0
   -2.9918    2.7549    0.0000 C   0  0  0  0  0  0  0  0  0  0  0  0
   -3.3037    4.2221    0.0000 C   0  0  0  0  0  0  0  0  0  0  0  0
   -2.0046    4.9721    0.0000 C   0  0  0  0  0  0  0  0  0  0  0  0
   -0.8899    3.9684    0.0000 C   0  0  0  0  0  0  0  0  0  0  0  0
    0.5773    4.2803    0.0000 C   0  0  0  0  0  0  0  0  0  0  0  0
    1.5810    3.1655    0.0000 C   0  0  0  0  0  0  0  0  0  0  0  0
    3.0482    3.4774    0.0000 C   0  0  0  0  0  0  0  0  0  0  0  0
    4.0519    2.3627    0.0000 F   0  0  0  0  0  0  0  0  0  0  0  0
    3.5118    4.9040    0.0000 C   0  0  0  0  0  0  0  0  0  0  0  0
    2.5081    6.0187    0.0000 C   0  0  0  0  0  0  0  0  0  0  0  0
    1.0409    5.7068    0.0000 C   0  0  0  0  0  0  0  0  0  0  0  0
    0.0372    6.8216    0.0000 F   0  0  0  0  0  0  0  0  0  0  0  0
   -1.5000    0.0000    0.0000 N   0  0  0  0  0  0  0  0  0  0  0  0
   -0.7500   -1.2990    0.0000 N   0  0  0  0  0  0  0  0  0  0  0  0
   -4.6904   -6.5871    0.0000 C   0  0  0  0  0  0  0  0  0  0  0  0
   -6.1170   -7.0506    0.0000 C   0  0  0  0  0  0  0  0  0  0  0  0
   -7.2317   -6.0469    0.0000 C   0  0  0  0  0  0  0  0  0  0  0  0
   -8.6583   -6.5105    0.0000 O   0  0  0  0  0  0  0  0  0  0  0  0
  1  2  1  0
  2  3  1  0
  3  4  2  0
  4  5  1  0
  5  6  2  0
  5  7  1  0
  7  8  1  0
  8  9  2  0
  9 10  1  0
 10 11  2  0
 11 12  1  0
 12 13  2  0
 13 14  1  0
 14 15  1  0
 15 16  1  0
 16 17  1  0
 17 18  1  0
 18 19  1  0
 19 20  1  6
 20 21  2  0
 21 22  1  0
 22 23  1  0
 22 24  2  0
 24 25  1  0
 25 26  2  0
 26 27  1  0
 14 28  2  0
 28 29  1  0
  4 30  1  0
 30 31  2  0
 31 32  1  0
 32 33  2  0
 32  2  1  0
 29  8  1  0
 29 11  1  0
 19 15  1  0
 26 20  1  0
M  END
>  <Compound_ID>  (153) 
CHEMBL4112956

>  <Molecule Name>  (153) 
nan

>  <Molecular Weight>  (153) 
450.45

>  <AlogP>  (153) 
3.3

>  <Smiles>  (153) 
Cn1cc(C(=O)Nc2cnc3ccc(N4CCC[C@@H]4c4cc(F)ccc4F)nn23)ccc1=O

>  <Standard Type>  (153) 
IC50

>  <Standard Relation>  (153) 
'='

>  <Standard Units>  (153) 
nM

>  <Standard Value>  (153) 
10.2

>  <Assay ChEMBL ID>  (153) 
CHEMBL3887826

>  <Assay Description>  (153) 
ELISA Assay: An enzyme-linked immunosorbant assay (ELISA) was used to assess TrkA kinase activity in the presence of inhibitors. Immulon 4HBX 384-well microtiter plates (Thermo part #8755) were coated with a 0.025 mg/mL solution of poly (Glu, Ala, Tyr; 6:3:1; Sigma P3899). Various concentrations of test compound, 2.5 nM TrkA (Invitrogen Corp., histidine-tagged recombinant human TrkA, cytoplasmic domain), and 500 uM ATP were incubated for 25 minutes at ambient temperature in the coated plates while shaking. The assay buffer consisted of 25 mM MOPS pH 7.5, 0.005% (v/v) Triton X-100 and 5 mM MgCl2. The reaction mixture was removed from the plate by washing with PBS containing 0.1% (v/v) Tween 20. The phosphorylated reaction product was detected using 0.2 ug/mL of a phosphotyrosine specific monoclonal antibody (clone PY20) conjugated to horseradish peroxidase in conjunction with the TMB Peroxidase Substrate System (KPL).

>  <BAO Format ID>  (153) 
BAO_0000357

>  <BAO Label>  (153) 
single protein format

>  <Assay Organism>  (153) 
None

>  <Target ChEMBL ID>  (153) 
CHEMBL2815

>  <Target Name>  (153) 
Nerve growth factor receptor Trk-A

>  <Target Organism>  (153) 
Homo sapiens

>  <Target Type>  (153) 
SINGLE PROTEIN

>  <Document ChEMBL ID>  (153) 
CHEMBL3886465

>  <Source Description>  (153) 
BindingDB Database

>  <Document Journal>  (153) 
nan

>  <Document Year>  (153) 
2016.0

>  <Active>  (153) 
1.0

>  <bits>  (153) 
<rdkit.DataStructs.cDataStructs.ExplicitBitVect object at 0x00000159F6034B30>

>  <Group>  (153) 
G2

$$$$

     RDKit          2D

 34 37  0  0  0  0  0  0  0  0999 V2000
   -2.9520   -4.6564    0.0000 C   0  0  0  0  0  0  0  0  0  0  0  0
   -2.6401   -3.1891    0.0000 C   0  0  0  0  0  0  0  0  0  0  0  0
   -3.7548   -2.1855    0.0000 C   0  0  0  0  0  0  0  0  0  0  0  0
   -1.2135   -2.7256    0.0000 N   0  0  0  0  0  0  0  0  0  0  0  0
   -0.0000   -3.6073    0.0000 C   0  0  0  0  0  0  0  0  0  0  0  0
    1.2135   -2.7256    0.0000 C   0  0  0  0  0  0  0  0  0  0  0  0
    2.6401   -3.1891    0.0000 C   0  0  0  0  0  0  0  0  0  0  0  0
    3.7548   -2.1855    0.0000 O   0  0  0  0  0  0  0  0  0  0  0  0
    2.9520   -4.6564    0.0000 C   0  0  0  0  0  0  0  0  0  0  0  0
    1.8373   -5.6601    0.0000 C   0  0  0  0  0  0  0  0  0  0  0  0
    2.1491   -7.1273    0.0000 N   0  0  0  0  0  0  0  0  0  0  0  0
    3.5757   -7.5908    0.0000 C   0  0  0  0  0  0  0  0  0  0  0  0
    4.6904   -6.5871    0.0000 C   0  0  0  0  0  0  0  0  0  0  0  0
    6.1170   -7.0506    0.0000 N   0  0  0  0  0  0  0  0  0  0  0  0
    6.4289   -8.5179    0.0000 C   0  0  0  0  0  0  0  0  0  0  0  0
    5.3142   -9.5216    0.0000 O   0  0  0  0  0  0  0  0  0  0  0  0
    7.8555   -8.9814    0.0000 C   0  0  0  0  0  0  0  0  0  0  0  0
    8.1673  -10.4486    0.0000 N   0  0  0  0  0  0  0  0  0  0  0  0
    9.5377  -11.0587    0.0000 C   0  0  0  0  0  0  0  0  0  0  0  0
    9.3809  -12.5505    0.0000 C   0  0  0  0  0  0  0  0  0  0  0  0
    7.9136  -12.8624    0.0000 C   0  0  0  0  0  0  0  0  0  0  0  0
    7.3035  -14.2327    0.0000 C   0  0  0  0  0  0  0  0  0  0  0  0
    6.6934  -15.6030    0.0000 F   0  0  0  0  0  0  0  0  0  0  0  0
    5.9332  -13.6226    0.0000 F   0  0  0  0  0  0  0  0  0  0  0  0
    8.6739  -14.8428    0.0000 F   0  0  0  0  0  0  0  0  0  0  0  0
    7.1636  -11.5633    0.0000 N   0  0  0  0  0  0  0  0  0  0  0  0
    4.3786   -5.1199    0.0000 C   0  0  0  0  0  0  0  0  0  0  0  0
    0.7500   -1.2990    0.0000 C   0  0  0  0  0  0  0  0  0  0  0  0
    1.5000    0.0000    0.0000 C   0  0  0  0  0  0  0  0  0  0  0  0
    0.7500    1.2990    0.0000 N   0  0  0  0  0  0  0  0  0  0  0  0
   -0.7500    1.2990    0.0000 C   0  0  0  0  0  0  0  0  0  0  0  0
   -1.5000    2.5981    0.0000 N   0  0  0  0  0  0  0  0  0  0  0  0
   -1.5000    0.0000    0.0000 N   0  0  0  0  0  0  0  0  0  0  0  0
   -0.7500   -1.2990    0.0000 C   0  0  0  0  0  0  0  0  0  0  0  0
  1  2  1  0
  2  3  1  0
  2  4  1  0
  4  5  1  0
  5  6  2  0
  6  7  1  0
  7  8  2  0
  7  9  1  0
  9 10  2  0
 10 11  1  0
 11 12  2  0
 12 13  1  0
 13 14  1  0
 14 15  1  0
 15 16  2  0
 15 17  1  0
 17 18  1  0
 18 19  1  0
 19 20  2  0
 20 21  1  0
 21 22  1  0
 22 23  1  0
 22 24  1  0
 22 25  1  0
 21 26  2  0
 13 27  2  0
  6 28  1  0
 28 29  2  0
 29 30  1  0
 30 31  2  0
 31 32  1  0
 31 33  1  0
 33 34  2  0
 34  4  1  0
 27  9  1  0
 34 28  1  0
 26 18  1  0
M  END
>  <Compound_ID>  (154) 
CHEMBL3666256

>  <Molecule Name>  (154) 
nan

>  <Molecular Weight>  (154) 
472.43

>  <AlogP>  (154) 
3.07

>  <Smiles>  (154) 
CC(C)n1cc(C(=O)c2cncc(NC(=O)Cn3ccc(C(F)(F)F)n3)c2)c2cnc(N)nc21

>  <Standard Type>  (154) 
IC50

>  <Standard Relation>  (154) 
'='

>  <Standard Units>  (154) 
nM

>  <Standard Value>  (154) 
5.18

>  <Assay ChEMBL ID>  (154) 
CHEMBL3887033

>  <Assay Description>  (154) 
Enzyme Assay: Isolated TRK Enzyme assays use the HTRF KinEASE-TK kit (Cisbio Cat# 62TK0PEJ) with recombinant His-tagged cytoplasmic domains of each TRK receptor sourced from Invitrogen (see table below). This activity-assay measures the phosphorylation of tyrosine residues within a substrate from the HTRF kit which has been validated by Cisbio for a variety of tyrosine kinases including the TRK receptors. Assay details: Target:TRKA; Invitrogen Cat# PV3144; Amino acids:aa 441-796; FAC enzyme:4nM; FAC ATP:40uM; Assay Reaction Time:35min.

>  <BAO Format ID>  (154) 
BAO_0000357

>  <BAO Label>  (154) 
single protein format

>  <Assay Organism>  (154) 
None

>  <Target ChEMBL ID>  (154) 
CHEMBL2815

>  <Target Name>  (154) 
Nerve growth factor receptor Trk-A

>  <Target Organism>  (154) 
Homo sapiens

>  <Target Type>  (154) 
SINGLE PROTEIN

>  <Document ChEMBL ID>  (154) 
CHEMBL3639348

>  <Source Description>  (154) 
BindingDB Database

>  <Document Journal>  (154) 
nan

>  <Document Year>  (154) 
2014.0

>  <Active>  (154) 
1.0

>  <bits>  (154) 
<rdkit.DataStructs.cDataStructs.ExplicitBitVect object at 0x00000159F6035B60>

>  <Group>  (154) 
G2

$$$$

     RDKit          2D

 37 40  0  0  0  0  0  0  0  0999 V2000
  -12.7250   -1.4741    0.0000 C   0  0  0  0  0  0  0  0  0  0  0  0
  -11.2984   -1.9377    0.0000 C   0  0  0  0  0  0  0  0  0  0  0  0
  -10.1837   -0.9340    0.0000 C   0  0  0  0  0  0  0  0  0  0  0  0
  -10.9866   -3.4049    0.0000 N   0  0  0  0  0  0  0  0  0  0  0  0
   -9.6162   -4.0150    0.0000 C   0  0  0  0  0  0  0  0  0  0  0  0
   -9.7730   -5.5068    0.0000 C   0  0  0  0  0  0  0  0  0  0  0  0
   -8.6583   -6.5105    0.0000 C   0  0  0  0  0  0  0  0  0  0  0  0
   -7.2317   -6.0469    0.0000 C   0  0  0  0  0  0  0  0  0  0  0  0
   -6.9199   -4.5797    0.0000 O   0  0  0  0  0  0  0  0  0  0  0  0
   -6.1170   -7.0506    0.0000 N   0  0  0  0  0  0  0  0  0  0  0  0
   -4.6904   -6.5871    0.0000 C   0  0  0  0  0  0  0  0  0  0  0  0
   -3.5757   -7.5908    0.0000 C   0  0  0  0  0  0  0  0  0  0  0  0
   -2.1491   -7.1273    0.0000 N   0  0  0  0  0  0  0  0  0  0  0  0
   -1.8373   -5.6601    0.0000 C   0  0  0  0  0  0  0  0  0  0  0  0
   -2.9520   -4.6564    0.0000 C   0  0  0  0  0  0  0  0  0  0  0  0
   -2.6401   -3.1891    0.0000 C   0  0  0  0  0  0  0  0  0  0  0  0
   -3.7548   -2.1855    0.0000 O   0  0  0  0  0  0  0  0  0  0  0  0
   -1.2135   -2.7256    0.0000 C   0  0  0  0  0  0  0  0  0  0  0  0
   -0.0000   -3.6073    0.0000 C   0  0  0  0  0  0  0  0  0  0  0  0
    1.2135   -2.7256    0.0000 N   0  0  0  0  0  0  0  0  0  0  0  0
    2.6401   -3.1891    0.0000 C   0  0  0  0  0  0  0  0  0  0  0  0
    2.9520   -4.6564    0.0000 C   0  0  0  0  0  0  0  0  0  0  0  0
    3.7548   -2.1855    0.0000 C   0  0  0  0  0  0  0  0  0  0  0  0
    0.7500   -1.2990    0.0000 C   0  0  0  0  0  0  0  0  0  0  0  0
    1.5000    0.0000    0.0000 N   0  0  0  0  0  0  0  0  0  0  0  0
    0.7500    1.2990    0.0000 C   0  0  0  0  0  0  0  0  0  0  0  0
    1.5000    2.5981    0.0000 N   0  0  0  0  0  0  0  0  0  0  0  0
   -0.7500    1.2990    0.0000 N   0  0  0  0  0  0  0  0  0  0  0  0
   -1.5000    0.0000    0.0000 C   0  0  0  0  0  0  0  0  0  0  0  0
   -0.7500   -1.2990    0.0000 C   0  0  0  0  0  0  0  0  0  0  0  0
   -4.3786   -5.1199    0.0000 C   0  0  0  0  0  0  0  0  0  0  0  0
  -11.2403   -5.8186    0.0000 C   0  0  0  0  0  0  0  0  0  0  0  0
  -11.8504   -7.1890    0.0000 C   0  0  0  0  0  0  0  0  0  0  0  0
  -12.4605   -8.5593    0.0000 F   0  0  0  0  0  0  0  0  0  0  0  0
  -13.2207   -6.5789    0.0000 F   0  0  0  0  0  0  0  0  0  0  0  0
  -10.4800   -7.7991    0.0000 F   0  0  0  0  0  0  0  0  0  0  0  0
  -11.9903   -4.5196    0.0000 N   0  0  0  0  0  0  0  0  0  0  0  0
  1  2  1  0
  2  3  1  0
  2  4  1  0
  4  5  1  0
  5  6  2  0
  6  7  1  0
  7  8  1  0
  8  9  2  0
  8 10  1  0
 10 11  1  0
 11 12  2  0
 12 13  1  0
 13 14  2  0
 14 15  1  0
 15 16  1  0
 16 17  2  0
 16 18  1  0
 18 19  2  0
 19 20  1  0
 20 21  1  0
 21 22  1  0
 21 23  1  0
 20 24  1  0
 24 25  2  0
 25 26  1  0
 26 27  1  0
 26 28  2  0
 28 29  1  0
 29 30  2  0
 15 31  2  0
  6 32  1  0
 32 33  1  0
 33 34  1  0
 33 35  1  0
 33 36  1  0
 32 37  2  0
 37  4  1  0
 31 11  1  0
 30 18  1  0
 30 24  1  0
M  END
>  <Compound_ID>  (155) 
CHEMBL3666258

>  <Molecule Name>  (155) 
nan

>  <Molecular Weight>  (155) 
514.51

>  <AlogP>  (155) 
4.2

>  <Smiles>  (155) 
CC(C)n1cc(CC(=O)Nc2cncc(C(=O)c3cn(C(C)C)c4nc(N)ncc34)c2)c(C(F)(F)F)n1

>  <Standard Type>  (155) 
IC50

>  <Standard Relation>  (155) 
'='

>  <Standard Units>  (155) 
nM

>  <Standard Value>  (155) 
52.6

>  <Assay ChEMBL ID>  (155) 
CHEMBL3887033

>  <Assay Description>  (155) 
Enzyme Assay: Isolated TRK Enzyme assays use the HTRF KinEASE-TK kit (Cisbio Cat# 62TK0PEJ) with recombinant His-tagged cytoplasmic domains of each TRK receptor sourced from Invitrogen (see table below). This activity-assay measures the phosphorylation of tyrosine residues within a substrate from the HTRF kit which has been validated by Cisbio for a variety of tyrosine kinases including the TRK receptors. Assay details: Target:TRKA; Invitrogen Cat# PV3144; Amino acids:aa 441-796; FAC enzyme:4nM; FAC ATP:40uM; Assay Reaction Time:35min.

>  <BAO Format ID>  (155) 
BAO_0000357

>  <BAO Label>  (155) 
single protein format

>  <Assay Organism>  (155) 
None

>  <Target ChEMBL ID>  (155) 
CHEMBL2815

>  <Target Name>  (155) 
Nerve growth factor receptor Trk-A

>  <Target Organism>  (155) 
Homo sapiens

>  <Target Type>  (155) 
SINGLE PROTEIN

>  <Document ChEMBL ID>  (155) 
CHEMBL3639348

>  <Source Description>  (155) 
BindingDB Database

>  <Document Journal>  (155) 
nan

>  <Document Year>  (155) 
2014.0

>  <Active>  (155) 
1.0

>  <bits>  (155) 
<rdkit.DataStructs.cDataStructs.ExplicitBitVect object at 0x00000159F6034890>

>  <Group>  (155) 
G2

$$$$

     RDKit          2D

 36 40  0  0  0  0  0  0  0  0999 V2000
   -2.1766   -4.6157    0.0000 C   0  0  0  0  0  0  0  0  0  0  0  0
   -2.6401   -3.1891    0.0000 C   0  0  0  0  0  0  0  0  0  0  0  0
   -3.1036   -1.7626    0.0000 C   0  0  0  0  0  0  0  0  0  0  0  0
   -4.0667   -3.6527    0.0000 C   0  0  0  0  0  0  0  0  0  0  0  0
   -5.1814   -2.6490    0.0000 O   0  0  0  0  0  0  0  0  0  0  0  0
   -1.2135   -2.7256    0.0000 N   0  0  0  0  0  0  0  0  0  0  0  0
   -0.0000   -3.6073    0.0000 C   0  0  0  0  0  0  0  0  0  0  0  0
    1.2135   -2.7256    0.0000 C   0  0  0  0  0  0  0  0  0  0  0  0
    2.6401   -3.1891    0.0000 C   0  0  0  0  0  0  0  0  0  0  0  0
    3.7548   -2.1855    0.0000 O   0  0  0  0  0  0  0  0  0  0  0  0
    2.9520   -4.6564    0.0000 C   0  0  0  0  0  0  0  0  0  0  0  0
    1.8373   -5.6601    0.0000 C   0  0  0  0  0  0  0  0  0  0  0  0
    2.1491   -7.1273    0.0000 N   0  0  0  0  0  0  0  0  0  0  0  0
    3.5757   -7.5908    0.0000 C   0  0  0  0  0  0  0  0  0  0  0  0
    4.6904   -6.5871    0.0000 C   0  0  0  0  0  0  0  0  0  0  0  0
    6.1170   -7.0506    0.0000 N   0  0  0  0  0  0  0  0  0  0  0  0
    6.4289   -8.5179    0.0000 C   0  0  0  0  0  0  0  0  0  0  0  0
    5.3142   -9.5216    0.0000 O   0  0  0  0  0  0  0  0  0  0  0  0
    7.8555   -8.9814    0.0000 C   0  0  0  0  0  0  0  0  0  0  0  0
    8.1673  -10.4486    0.0000 C   0  0  0  0  0  0  0  0  0  0  0  0
    7.0526  -11.4523    0.0000 C   0  0  0  0  0  0  0  0  0  0  0  0
    7.3645  -12.9195    0.0000 C   0  0  0  0  0  0  0  0  0  0  0  0
    8.7911  -13.3831    0.0000 C   0  0  0  0  0  0  0  0  0  0  0  0
    9.4012  -14.7534    0.0000 O   0  0  0  0  0  0  0  0  0  0  0  0
   10.8930  -14.5966    0.0000 C   0  0  0  0  0  0  0  0  0  0  0  0
   11.2048  -13.1294    0.0000 N   0  0  0  0  0  0  0  0  0  0  0  0
    9.9058  -12.3794    0.0000 C   0  0  0  0  0  0  0  0  0  0  0  0
    9.5939  -10.9121    0.0000 C   0  0  0  0  0  0  0  0  0  0  0  0
    4.3786   -5.1199    0.0000 C   0  0  0  0  0  0  0  0  0  0  0  0
    0.7500   -1.2990    0.0000 C   0  0  0  0  0  0  0  0  0  0  0  0
    1.5000    0.0000    0.0000 C   0  0  0  0  0  0  0  0  0  0  0  0
    0.7500    1.2990    0.0000 N   0  0  0  0  0  0  0  0  0  0  0  0
   -0.7500    1.2990    0.0000 C   0  0  0  0  0  0  0  0  0  0  0  0
   -1.5000    2.5981    0.0000 N   0  0  0  0  0  0  0  0  0  0  0  0
   -1.5000    0.0000    0.0000 N   0  0  0  0  0  0  0  0  0  0  0  0
   -0.7500   -1.2990    0.0000 C   0  0  0  0  0  0  0  0  0  0  0  0
  1  2  1  0
  2  3  1  0
  2  4  1  0
  4  5  1  0
  2  6  1  0
  6  7  1  0
  7  8  2  0
  8  9  1  0
  9 10  2  0
  9 11  1  0
 11 12  2  0
 12 13  1  0
 13 14  2  0
 14 15  1  0
 15 16  1  0
 16 17  1  0
 17 18  2  0
 17 19  1  0
 19 20  1  0
 20 21  2  0
 21 22  1  0
 22 23  2  0
 23 24  1  0
 24 25  1  0
 25 26  2  0
 26 27  1  0
 27 28  2  0
 15 29  2  0
  8 30  1  0
 30 31  2  0
 31 32  1  0
 32 33  2  0
 33 34  1  0
 33 35  1  0
 35 36  2  0
 36  6  1  0
 29 11  1  0
 36 30  1  0
 28 20  1  0
 27 23  1  0
M  END
>  <Compound_ID>  (156) 
CHEMBL3666260

>  <Molecule Name>  (156) 
nan

>  <Molecular Weight>  (156) 
485.5

>  <AlogP>  (156) 
2.69

>  <Smiles>  (156) 
CC(C)(CO)n1cc(C(=O)c2cncc(NC(=O)Cc3ccc4ocnc4c3)c2)c2cnc(N)nc21

>  <Standard Type>  (156) 
IC50

>  <Standard Relation>  (156) 
'='

>  <Standard Units>  (156) 
nM

>  <Standard Value>  (156) 
12.2

>  <Assay ChEMBL ID>  (156) 
CHEMBL3887033

>  <Assay Description>  (156) 
Enzyme Assay: Isolated TRK Enzyme assays use the HTRF KinEASE-TK kit (Cisbio Cat# 62TK0PEJ) with recombinant His-tagged cytoplasmic domains of each TRK receptor sourced from Invitrogen (see table below). This activity-assay measures the phosphorylation of tyrosine residues within a substrate from the HTRF kit which has been validated by Cisbio for a variety of tyrosine kinases including the TRK receptors. Assay details: Target:TRKA; Invitrogen Cat# PV3144; Amino acids:aa 441-796; FAC enzyme:4nM; FAC ATP:40uM; Assay Reaction Time:35min.

>  <BAO Format ID>  (156) 
BAO_0000357

>  <BAO Label>  (156) 
single protein format

>  <Assay Organism>  (156) 
None

>  <Target ChEMBL ID>  (156) 
CHEMBL2815

>  <Target Name>  (156) 
Nerve growth factor receptor Trk-A

>  <Target Organism>  (156) 
Homo sapiens

>  <Target Type>  (156) 
SINGLE PROTEIN

>  <Document ChEMBL ID>  (156) 
CHEMBL3639348

>  <Source Description>  (156) 
BindingDB Database

>  <Document Journal>  (156) 
nan

>  <Document Year>  (156) 
2014.0

>  <Active>  (156) 
1.0

>  <bits>  (156) 
<rdkit.DataStructs.cDataStructs.ExplicitBitVect object at 0x00000159F6037530>

>  <Group>  (156) 
G2

$$$$

     RDKit          2D

 34 38  0  0  0  0  0  0  0  0999 V2000
   -2.9520   -4.6564    0.0000 C   0  0  0  0  0  0  0  0  0  0  0  0
   -2.6401   -3.1891    0.0000 C   0  0  0  0  0  0  0  0  0  0  0  0
   -3.7548   -2.1855    0.0000 C   0  0  0  0  0  0  0  0  0  0  0  0
   -1.2135   -2.7256    0.0000 N   0  0  0  0  0  0  0  0  0  0  0  0
   -0.0000   -3.6073    0.0000 C   0  0  0  0  0  0  0  0  0  0  0  0
    1.2135   -2.7256    0.0000 C   0  0  0  0  0  0  0  0  0  0  0  0
    2.6401   -3.1891    0.0000 C   0  0  0  0  0  0  0  0  0  0  0  0
    3.7548   -2.1855    0.0000 O   0  0  0  0  0  0  0  0  0  0  0  0
    2.9520   -4.6564    0.0000 C   0  0  0  0  0  0  0  0  0  0  0  0
    1.8373   -5.6601    0.0000 C   0  0  0  0  0  0  0  0  0  0  0  0
    2.1491   -7.1273    0.0000 N   0  0  0  0  0  0  0  0  0  0  0  0
    3.5757   -7.5908    0.0000 C   0  0  0  0  0  0  0  0  0  0  0  0
    4.6904   -6.5871    0.0000 C   0  0  0  0  0  0  0  0  0  0  0  0
    6.1170   -7.0506    0.0000 N   0  0  0  0  0  0  0  0  0  0  0  0
    6.4289   -8.5179    0.0000 C   0  0  0  0  0  0  0  0  0  0  0  0
    5.3142   -9.5216    0.0000 O   0  0  0  0  0  0  0  0  0  0  0  0
    7.8555   -8.9814    0.0000 C   0  0  0  0  0  0  0  0  0  0  0  0
    8.1673  -10.4486    0.0000 C   0  0  0  0  0  0  0  0  0  0  0  0
    7.1636  -11.5633    0.0000 C   0  0  0  0  0  0  0  0  0  0  0  0
    7.9136  -12.8624    0.0000 N   0  0  0  0  0  0  0  0  0  0  0  0
    9.3809  -12.5505    0.0000 C   0  0  0  0  0  0  0  0  0  0  0  0
   10.5944  -13.4322    0.0000 C   0  0  0  0  0  0  0  0  0  0  0  0
   10.4376  -14.9240    0.0000 Cl  0  0  0  0  0  0  0  0  0  0  0  0
   11.9647  -12.8221    0.0000 C   0  0  0  0  0  0  0  0  0  0  0  0
   12.1215  -11.3303    0.0000 C   0  0  0  0  0  0  0  0  0  0  0  0
   10.9080  -10.4486    0.0000 C   0  0  0  0  0  0  0  0  0  0  0  0
    9.5377  -11.0587    0.0000 C   0  0  0  0  0  0  0  0  0  0  0  0
    4.3786   -5.1199    0.0000 C   0  0  0  0  0  0  0  0  0  0  0  0
    0.7500   -1.2990    0.0000 C   0  0  0  0  0  0  0  0  0  0  0  0
    1.5000    0.0000    0.0000 C   0  0  0  0  0  0  0  0  0  0  0  0
    0.7500    1.2990    0.0000 N   0  0  0  0  0  0  0  0  0  0  0  0
   -0.7500    1.2990    0.0000 C   0  0  0  0  0  0  0  0  0  0  0  0
   -1.5000    0.0000    0.0000 N   0  0  0  0  0  0  0  0  0  0  0  0
   -0.7500   -1.2990    0.0000 C   0  0  0  0  0  0  0  0  0  0  0  0
  1  2  1  0
  2  3  1  0
  2  4  1  0
  4  5  1  0
  5  6  2  0
  6  7  1  0
  7  8  2  0
  7  9  1  0
  9 10  2  0
 10 11  1  0
 11 12  2  0
 12 13  1  0
 13 14  1  0
 14 15  1  0
 15 16  2  0
 15 17  1  0
 17 18  1  0
 18 19  2  0
 19 20  1  0
 20 21  1  0
 21 22  2  0
 22 23  1  0
 22 24  1  0
 24 25  2  0
 25 26  1  0
 26 27  2  0
 13 28  2  0
  6 29  1  0
 29 30  2  0
 30 31  1  0
 31 32  2  0
 32 33  1  0
 33 34  2  0
 34  4  1  0
 28  9  1  0
 34 29  1  0
 27 18  1  0
 27 21  1  0
M  END
>  <Compound_ID>  (157) 
CHEMBL3661542

>  <Molecule Name>  (157) 
nan

>  <Molecular Weight>  (157) 
472.94

>  <AlogP>  (157) 
4.95

>  <Smiles>  (157) 
CC(C)n1cc(C(=O)c2cncc(NC(=O)Cc3c[nH]c4c(Cl)cccc34)c2)c2cncnc21

>  <Standard Type>  (157) 
IC50

>  <Standard Relation>  (157) 
'='

>  <Standard Units>  (157) 
nM

>  <Standard Value>  (157) 
93.4

>  <Assay ChEMBL ID>  (157) 
CHEMBL3887033

>  <Assay Description>  (157) 
Enzyme Assay: Isolated TRK Enzyme assays use the HTRF KinEASE-TK kit (Cisbio Cat# 62TK0PEJ) with recombinant His-tagged cytoplasmic domains of each TRK receptor sourced from Invitrogen (see table below). This activity-assay measures the phosphorylation of tyrosine residues within a substrate from the HTRF kit which has been validated by Cisbio for a variety of tyrosine kinases including the TRK receptors. Assay details: Target:TRKA; Invitrogen Cat# PV3144; Amino acids:aa 441-796; FAC enzyme:4nM; FAC ATP:40uM; Assay Reaction Time:35min.

>  <BAO Format ID>  (157) 
BAO_0000357

>  <BAO Label>  (157) 
single protein format

>  <Assay Organism>  (157) 
None

>  <Target ChEMBL ID>  (157) 
CHEMBL2815

>  <Target Name>  (157) 
Nerve growth factor receptor Trk-A

>  <Target Organism>  (157) 
Homo sapiens

>  <Target Type>  (157) 
SINGLE PROTEIN

>  <Document ChEMBL ID>  (157) 
CHEMBL3639348

>  <Source Description>  (157) 
BindingDB Database

>  <Document Journal>  (157) 
nan

>  <Document Year>  (157) 
2014.0

>  <Active>  (157) 
1.0

>  <bits>  (157) 
<rdkit.DataStructs.cDataStructs.ExplicitBitVect object at 0x00000159F60368F0>

>  <Group>  (157) 
G2

$$$$

     RDKit          2D

 37 41  0  0  0  0  0  0  0  0999 V2000
   -7.9882  -15.8540    0.0000 C   0  0  0  0  0  0  0  0  0  0  0  0
   -6.5616  -15.3904    0.0000 O   0  0  0  0  0  0  0  0  0  0  0  0
   -6.2498  -13.9232    0.0000 C   0  0  0  0  0  0  0  0  0  0  0  0
   -7.3645  -12.9195    0.0000 C   0  0  0  0  0  0  0  0  0  0  0  0
   -7.0526  -11.4523    0.0000 C   0  0  0  0  0  0  0  0  0  0  0  0
   -5.6260  -10.9888    0.0000 C   0  0  0  0  0  0  0  0  0  0  0  0
   -5.3142   -9.5216    0.0000 C   0  0  0  0  0  0  0  0  0  0  0  0
   -3.8876   -9.0580    0.0000 O   0  0  0  0  0  0  0  0  0  0  0  0
   -3.5757   -7.5908    0.0000 C   0  0  0  0  0  0  0  0  0  0  0  0
   -2.1491   -7.1273    0.0000 C   0  0  0  0  0  0  0  0  0  0  0  0
   -1.8373   -5.6601    0.0000 C   0  0  0  0  0  0  0  0  0  0  0  0
   -2.9520   -4.6564    0.0000 C   0  0  0  0  0  0  0  0  0  0  0  0
   -2.6401   -3.1891    0.0000 C   0  0  0  0  0  0  0  0  0  0  0  0
   -3.7548   -2.1855    0.0000 C   0  0  0  0  0  0  0  0  0  0  0  0
   -1.2135   -2.7256    0.0000 N   0  0  0  0  0  0  0  0  0  0  0  0
   -0.0000   -3.6073    0.0000 C   0  0  0  0  0  0  0  0  0  0  0  0
    0.0000   -5.1073    0.0000 N   0  0  0  0  0  0  0  0  0  0  0  0
    1.2135   -2.7256    0.0000 N   0  0  0  0  0  0  0  0  0  0  0  0
    0.7500   -1.2990    0.0000 C   0  0  0  0  0  0  0  0  0  0  0  0
    1.5000    0.0000    0.0000 C   0  0  0  0  0  0  0  0  0  0  0  0
    0.7500    1.2990    0.0000 C   0  0  0  0  0  0  0  0  0  0  0  0
    1.5000    2.5981    0.0000 C   0  0  0  0  0  0  0  0  0  0  0  0
    3.0000    2.5981    0.0000 C   0  0  0  0  0  0  0  0  0  0  0  0
    3.7500    3.8971    0.0000 C   0  0  0  0  0  0  0  0  0  0  0  0
    3.0000    5.1962    0.0000 C   0  0  0  0  0  0  0  0  0  0  0  0
    3.7500    6.4952    0.0000 F   0  0  0  0  0  0  0  0  0  0  0  0
    1.5000    5.1962    0.0000 C   0  0  0  0  0  0  0  0  0  0  0  0
    0.7500    3.8971    0.0000 C   0  0  0  0  0  0  0  0  0  0  0  0
   -0.7500    1.2990    0.0000 C   0  0  0  0  0  0  0  0  0  0  0  0
   -1.5000    0.0000    0.0000 C   0  0  0  0  0  0  0  0  0  0  0  0
   -0.7500   -1.2990    0.0000 C   0  0  0  0  0  0  0  0  0  0  0  0
   -4.3786   -5.1199    0.0000 C   0  0  0  0  0  0  0  0  0  0  0  0
   -4.6904   -6.5871    0.0000 C   0  0  0  0  0  0  0  0  0  0  0  0
   -6.1170   -7.0506    0.0000 O   0  0  0  0  0  0  0  0  0  0  0  0
   -7.2317   -6.0469    0.0000 C   0  0  0  0  0  0  0  0  0  0  0  0
   -4.5113  -11.9925    0.0000 C   0  0  0  0  0  0  0  0  0  0  0  0
   -4.8232  -13.4597    0.0000 N   0  0  0  0  0  0  0  0  0  0  0  0
  1  2  1  0
  2  3  1  0
  3  4  2  0
  4  5  1  0
  5  6  2  0
  6  7  1  0
  7  8  1  0
  8  9  1  0
  9 10  2  0
 10 11  1  0
 11 12  2  0
 12 13  1  0
 13 14  1  0
 13 15  1  0
 15 16  1  0
 16 17  1  0
 16 18  2  0
 18 19  1  0
 19 20  2  0
 20 21  1  0
 21 22  1  0
 22 23  2  0
 23 24  1  0
 24 25  2  0
 25 26  1  0
 25 27  1  0
 27 28  2  0
 21 29  2  0
 29 30  1  0
 30 31  2  0
 12 32  1  0
 32 33  2  0
 33 34  1  0
 34 35  1  0
  6 36  1  0
 36 37  2  0
 37  3  1  0
 33  9  1  0
 31 15  1  0
 31 19  1  0
 28 22  1  0
M  END
>  <Compound_ID>  (158) 
CHEMBL3678293

>  <Molecule Name>  (158) 
nan

>  <Molecular Weight>  (158) 
498.56

>  <AlogP>  (158) 
6.03

>  <Smiles>  (158) 
COc1ccc(COc2ccc(C(C)n3c(N)nc4cc(-c5ccc(F)cc5)ccc43)cc2OC)cn1

>  <Standard Type>  (158) 
IC50

>  <Standard Relation>  (158) 
'='

>  <Standard Units>  (158) 
nM

>  <Standard Value>  (158) 
85.0

>  <Assay ChEMBL ID>  (158) 
CHEMBL3887112

>  <Assay Description>  (158) 
Inhibition Assay: Reagents and consumables were purchased from Sigma Aldrich, Carna Biosciences, or Caliper Life Sciences. All assay reaction conditions for IC50 determinations were within the linear range with respect to time and enzyme concentration. In a 384 well polypropylene plate, TrkA (0.4 nM, Carna 08-186) was pre-incubated in a 100 mM Hepes-NaOH pH 7.5 buffer containing 0.01% Triton X-100, 10 mM MgCl2, 0.1% BSA, 1 mM DTT, 10 uM sodium orthovanadate and 10 uM beta-glycerophosphate and compound with a concentration of 2.5% DMSO for 15 minutes at room temperature. The reaction was initiated with an equal volume of peptide substrate (Caliper Life Sciences catalog no. 760430) and ATP in the aforementioned buffer. The final concentrations in the reaction were 200 pM TrkA, 1.5 uM peptide substrate and 55 uM ATP (ATP Km). The reaction was incubated at room temperature for 180 minutes and terminated with a buffer containing excess EDTA (100 mM Hepes-NaOH pH 7.5, 0.02% Brij.

>  <BAO Format ID>  (158) 
BAO_0000357

>  <BAO Label>  (158) 
single protein format

>  <Assay Organism>  (158) 
None

>  <Target ChEMBL ID>  (158) 
CHEMBL2815

>  <Target Name>  (158) 
Nerve growth factor receptor Trk-A

>  <Target Organism>  (158) 
Homo sapiens

>  <Target Type>  (158) 
SINGLE PROTEIN

>  <Document ChEMBL ID>  (158) 
CHEMBL3638818

>  <Source Description>  (158) 
BindingDB Database

>  <Document Journal>  (158) 
nan

>  <Document Year>  (158) 
2015.0

>  <Active>  (158) 
1.0

>  <bits>  (158) 
<rdkit.DataStructs.cDataStructs.ExplicitBitVect object at 0x00000159F6037D10>

>  <Group>  (158) 
G2

$$$$

     RDKit          2D

 38 41  0  0  0  0  0  0  0  0999 V2000
   -2.1766   -4.6157    0.0000 C   0  0  0  0  0  0  0  0  0  0  0  0
   -2.6401   -3.1891    0.0000 C   0  0  0  0  0  0  0  0  0  0  0  0
   -3.1036   -1.7626    0.0000 C   0  0  0  0  0  0  0  0  0  0  0  0
   -4.0667   -3.6527    0.0000 C   0  0  0  0  0  0  0  0  0  0  0  0
   -5.1814   -2.6490    0.0000 O   0  0  0  0  0  0  0  0  0  0  0  0
   -1.2135   -2.7256    0.0000 N   0  0  0  0  0  0  0  0  0  0  0  0
   -0.0000   -3.6073    0.0000 C   0  0  0  0  0  0  0  0  0  0  0  0
    1.2135   -2.7256    0.0000 C   0  0  0  0  0  0  0  0  0  0  0  0
    2.6401   -3.1891    0.0000 C   0  0  0  0  0  0  0  0  0  0  0  0
    3.7548   -2.1855    0.0000 O   0  0  0  0  0  0  0  0  0  0  0  0
    2.9520   -4.6564    0.0000 C   0  0  0  0  0  0  0  0  0  0  0  0
    1.8373   -5.6601    0.0000 C   0  0  0  0  0  0  0  0  0  0  0  0
    2.1491   -7.1273    0.0000 N   0  0  0  0  0  0  0  0  0  0  0  0
    3.5757   -7.5908    0.0000 C   0  0  0  0  0  0  0  0  0  0  0  0
    4.6904   -6.5871    0.0000 C   0  0  0  0  0  0  0  0  0  0  0  0
    6.1170   -7.0506    0.0000 N   0  0  0  0  0  0  0  0  0  0  0  0
    6.4289   -8.5179    0.0000 C   0  0  0  0  0  0  0  0  0  0  0  0
    5.3142   -9.5216    0.0000 O   0  0  0  0  0  0  0  0  0  0  0  0
    7.8555   -8.9814    0.0000 C   0  0  0  0  0  0  0  0  0  0  0  0
    8.1673  -10.4486    0.0000 C   0  0  0  0  0  0  0  0  0  0  0  0
    7.0526  -11.4523    0.0000 C   0  0  0  0  0  0  0  0  0  0  0  0
    7.3645  -12.9195    0.0000 C   0  0  0  0  0  0  0  0  0  0  0  0
    8.7911  -13.3831    0.0000 C   0  0  0  0  0  0  0  0  0  0  0  0
    9.1029  -14.8503    0.0000 O   0  0  0  0  0  0  0  0  0  0  0  0
    7.9882  -15.8540    0.0000 C   0  0  0  0  0  0  0  0  0  0  0  0
    6.8735  -16.8577    0.0000 F   0  0  0  0  0  0  0  0  0  0  0  0
    8.9919  -16.9687    0.0000 F   0  0  0  0  0  0  0  0  0  0  0  0
    6.9845  -14.7393    0.0000 F   0  0  0  0  0  0  0  0  0  0  0  0
    9.9058  -12.3794    0.0000 C   0  0  0  0  0  0  0  0  0  0  0  0
    9.5939  -10.9121    0.0000 C   0  0  0  0  0  0  0  0  0  0  0  0
    4.3786   -5.1199    0.0000 C   0  0  0  0  0  0  0  0  0  0  0  0
    0.7500   -1.2990    0.0000 C   0  0  0  0  0  0  0  0  0  0  0  0
    1.5000    0.0000    0.0000 C   0  0  0  0  0  0  0  0  0  0  0  0
    0.7500    1.2990    0.0000 N   0  0  0  0  0  0  0  0  0  0  0  0
   -0.7500    1.2990    0.0000 C   0  0  0  0  0  0  0  0  0  0  0  0
   -1.5000    2.5981    0.0000 N   0  0  0  0  0  0  0  0  0  0  0  0
   -1.5000    0.0000    0.0000 N   0  0  0  0  0  0  0  0  0  0  0  0
   -0.7500   -1.2990    0.0000 C   0  0  0  0  0  0  0  0  0  0  0  0
  1  2  1  0
  2  3  1  0
  2  4  1  0
  4  5  1  0
  2  6  1  0
  6  7  1  0
  7  8  2  0
  8  9  1  0
  9 10  2  0
  9 11  1  0
 11 12  2  0
 12 13  1  0
 13 14  2  0
 14 15  1  0
 15 16  1  0
 16 17  1  0
 17 18  2  0
 17 19  1  0
 19 20  1  0
 20 21  2  0
 21 22  1  0
 22 23  2  0
 23 24  1  0
 24 25  1  0
 25 26  1  0
 25 27  1  0
 25 28  1  0
 23 29  1  0
 29 30  2  0
 15 31  2  0
  8 32  1  0
 32 33  2  0
 33 34  1  0
 34 35  2  0
 35 36  1  0
 35 37  1  0
 37 38  2  0
 38  6  1  0
 31 11  1  0
 38 32  1  0
 30 20  1  0
M  END
>  <Compound_ID>  (159) 
CHEMBL3671439

>  <Molecule Name>  (159) 
nan

>  <Molecular Weight>  (159) 
528.49

>  <AlogP>  (159) 
3.45

>  <Smiles>  (159) 
CC(C)(CO)n1cc(C(=O)c2cncc(NC(=O)Cc3ccc(OC(F)(F)F)cc3)c2)c2cnc(N)nc21

>  <Standard Type>  (159) 
IC50

>  <Standard Relation>  (159) 
'='

>  <Standard Units>  (159) 
nM

>  <Standard Value>  (159) 
20.8

>  <Assay ChEMBL ID>  (159) 
CHEMBL3887033

>  <Assay Description>  (159) 
Enzyme Assay: Isolated TRK Enzyme assays use the HTRF KinEASE-TK kit (Cisbio Cat# 62TK0PEJ) with recombinant His-tagged cytoplasmic domains of each TRK receptor sourced from Invitrogen (see table below). This activity-assay measures the phosphorylation of tyrosine residues within a substrate from the HTRF kit which has been validated by Cisbio for a variety of tyrosine kinases including the TRK receptors. Assay details: Target:TRKA; Invitrogen Cat# PV3144; Amino acids:aa 441-796; FAC enzyme:4nM; FAC ATP:40uM; Assay Reaction Time:35min.

>  <BAO Format ID>  (159) 
BAO_0000357

>  <BAO Label>  (159) 
single protein format

>  <Assay Organism>  (159) 
None

>  <Target ChEMBL ID>  (159) 
CHEMBL2815

>  <Target Name>  (159) 
Nerve growth factor receptor Trk-A

>  <Target Organism>  (159) 
Homo sapiens

>  <Target Type>  (159) 
SINGLE PROTEIN

>  <Document ChEMBL ID>  (159) 
CHEMBL3639348

>  <Source Description>  (159) 
BindingDB Database

>  <Document Journal>  (159) 
nan

>  <Document Year>  (159) 
2014.0

>  <Active>  (159) 
1.0

>  <bits>  (159) 
<rdkit.DataStructs.cDataStructs.ExplicitBitVect object at 0x00000159F6037D80>

>  <Group>  (159) 
G2

$$$$

     RDKit          2D

 33 37  0  0  0  0  0  0  0  0999 V2000
   -2.9520   -4.6564    0.0000 N   0  0  0  0  0  0  0  0  0  0  0  0
   -2.6401   -3.1891    0.0000 C   0  0  0  0  0  0  0  0  0  0  0  0
   -3.7548   -2.1855    0.0000 O   0  0  0  0  0  0  0  0  0  0  0  0
   -1.2135   -2.7256    0.0000 C   0  0  0  0  0  0  0  0  0  0  0  0
   -0.0000   -3.6073    0.0000 C   0  0  0  0  0  0  0  0  0  0  0  0
    1.2135   -2.7256    0.0000 N   0  0  0  0  0  0  0  0  0  0  0  0
    0.7500   -1.2990    0.0000 N   0  0  0  0  0  0  0  0  0  0  0  0
    1.5000    0.0000    0.0000 C   0  0  0  0  0  0  0  0  0  0  0  0
    0.7500    1.2990    0.0000 C   0  0  0  0  0  0  0  0  0  0  0  0
   -0.7500    1.2990    0.0000 C   0  0  0  0  0  0  0  0  0  0  0  0
   -1.5000    2.5981    0.0000 N   0  0  0  0  0  0  0  0  0  0  0  0
   -2.9918    2.7549    0.0000 C   0  0  0  0  0  0  0  0  0  0  0  0
   -3.3037    4.2221    0.0000 C   0  0  0  0  0  0  0  0  0  0  0  0
   -2.0046    4.9721    0.0000 C   0  0  0  0  0  0  0  0  0  0  0  0
   -0.8899    3.9684    0.0000 C   0  0  0  0  0  0  0  0  0  0  0  0
    0.5773    4.2803    0.0000 C   0  0  0  0  0  0  0  0  0  0  0  0
    1.5810    3.1655    0.0000 C   0  0  0  0  0  0  0  0  0  0  0  0
    3.0482    3.4774    0.0000 C   0  0  0  0  0  0  0  0  0  0  0  0
    4.0519    2.3627    0.0000 F   0  0  0  0  0  0  0  0  0  0  0  0
    3.5118    4.9040    0.0000 C   0  0  0  0  0  0  0  0  0  0  0  0
    2.5081    6.0187    0.0000 C   0  0  0  0  0  0  0  0  0  0  0  0
    2.9716    7.4453    0.0000 O   0  0  0  0  0  0  0  0  0  0  0  0
    4.4388    7.7572    0.0000 C   0  0  0  0  0  0  0  0  0  0  0  0
    4.9023    9.1838    0.0000 C   0  0  0  0  0  0  0  0  0  0  0  0
    6.3696    9.4956    0.0000 N   0  0  0  0  0  0  0  0  0  0  0  0
    7.3733    8.3809    0.0000 C   0  0  0  0  0  0  0  0  0  0  0  0
    8.8405    8.6928    0.0000 C   0  0  0  0  0  0  0  0  0  0  0  0
    9.3040   10.1194    0.0000 O   0  0  0  0  0  0  0  0  0  0  0  0
    8.3003   11.2341    0.0000 C   0  0  0  0  0  0  0  0  0  0  0  0
    6.8331   10.9222    0.0000 C   0  0  0  0  0  0  0  0  0  0  0  0
    1.0409    5.7068    0.0000 C   0  0  0  0  0  0  0  0  0  0  0  0
   -1.5000    0.0000    0.0000 N   0  0  0  0  0  0  0  0  0  0  0  0
   -0.7500   -1.2990    0.0000 C   0  0  0  0  0  0  0  0  0  0  0  0
  1  2  1  0
  2  3  2  0
  2  4  1  0
  4  5  1  0
  5  6  2  0
  6  7  1  0
  7  8  1  0
  8  9  2  0
  9 10  1  0
 10 11  1  0
 11 12  1  0
 12 13  1  0
 13 14  1  0
 14 15  1  0
 15 16  1  6
 16 17  2  0
 17 18  1  0
 18 19  1  0
 18 20  2  0
 20 21  1  0
 21 22  1  0
 22 23  1  0
 23 24  1  0
 24 25  1  0
 25 26  1  0
 26 27  1  0
 27 28  1  0
 28 29  1  0
 29 30  1  0
 21 31  2  0
 10 32  2  0
 32 33  1  0
 33  4  2  0
 33  7  1  0
 15 11  1  0
 31 16  1  0
 30 25  1  0
M  END
>  <Compound_ID>  (160) 
CHEMBL3675951

>  <Molecule Name>  (160) 
nan

>  <Molecular Weight>  (160) 
454.51

>  <AlogP>  (160) 
2.02

>  <Smiles>  (160) 
NC(=O)c1cnn2ccc(N3CCC[C@@H]3c3cc(F)cc(OCCN4CCOCC4)c3)nc12

>  <Standard Type>  (160) 
IC50

>  <Standard Relation>  (160) 
'='

>  <Standard Units>  (160) 
nM

>  <Standard Value>  (160) 
90.05

>  <Assay ChEMBL ID>  (160) 
CHEMBL3887070

>  <Assay Description>  (160) 
ELISA Assay: An enzyme-linked immunosorbant assay (ELISA) was used to assess TrkA kinase activity in the presence of inhibitors. Immulon 4HBX 384-well microtiter plates (Thermo part #8755) were coated with a 0.025 mg/mL solution of poly (Glu, Ala, Tyr; 6:3:1; Sigma P3899). Various concentrations of test compound, 2.5 nM TrkA (Invitrogen Corp., histidine-tagged recombinant human TrkA, cytoplasmic domain), and 500 uM ATP were incubated for 25 minutes at ambient temperature in the coated plates while shaking The assay buffer consisted of 25 mM MOPS pH 7.5, 0.005% (v/v) Triton X-100 and 5 mM MgCl2. The reaction mixture was removed from the plate by washing with PBS containing 0.1% (v/v) Tween 20. The phosphorylated reaction product was detected using 0.2 ug/mL of a phosphotyrosine specific monoclonal antibody (clone PY20) conjugated to horseradish peroxidase in conjunction with the TMB Peroxidase Substrate System (KPL).

>  <BAO Format ID>  (160) 
BAO_0000357

>  <BAO Label>  (160) 
single protein format

>  <Assay Organism>  (160) 
None

>  <Target ChEMBL ID>  (160) 
CHEMBL2815

>  <Target Name>  (160) 
Nerve growth factor receptor Trk-A

>  <Target Organism>  (160) 
Homo sapiens

>  <Target Type>  (160) 
SINGLE PROTEIN

>  <Document ChEMBL ID>  (160) 
CHEMBL3638907

>  <Source Description>  (160) 
BindingDB Database

>  <Document Journal>  (160) 
nan

>  <Document Year>  (160) 
2014.0

>  <Active>  (160) 
1.0

>  <bits>  (160) 
<rdkit.DataStructs.cDataStructs.ExplicitBitVect object at 0x00000159F60370D0>

>  <Group>  (160) 
G2

$$$$

     RDKit          2D

 38 42  0  0  0  0  0  0  0  0999 V2000
    5.7997    1.0344    0.0000 C   0  0  0  0  0  0  0  0  0  0  0  0
    4.7960    2.1491    0.0000 C   0  0  0  0  0  0  0  0  0  0  0  0
    5.2595    3.5757    0.0000 C   0  0  0  0  0  0  0  0  0  0  0  0
    6.7267    3.8876    0.0000 C   0  0  0  0  0  0  0  0  0  0  0  0
    7.7304    2.7729    0.0000 C   0  0  0  0  0  0  0  0  0  0  0  0
    9.1976    3.0847    0.0000 C   0  0  0  0  0  0  0  0  0  0  0  0
   10.2013    1.9700    0.0000 F   0  0  0  0  0  0  0  0  0  0  0  0
    9.6612    4.5113    0.0000 C   0  0  0  0  0  0  0  0  0  0  0  0
    8.6575    5.6260    0.0000 C   0  0  0  0  0  0  0  0  0  0  0  0
    7.1902    5.3142    0.0000 C   0  0  0  0  0  0  0  0  0  0  0  0
    6.1865    6.4289    0.0000 F   0  0  0  0  0  0  0  0  0  0  0  0
    3.3287    1.8373    0.0000 N   0  0  0  0  0  0  0  0  0  0  0  0
    2.3250    2.9520    0.0000 C   0  0  0  0  0  0  0  0  0  0  0  0
    2.7886    4.3786    0.0000 C   0  0  0  0  0  0  0  0  0  0  0  0
    1.7849    5.4933    0.0000 C   0  0  0  0  0  0  0  0  0  0  0  0
    0.3177    5.1814    0.0000 N   0  0  0  0  0  0  0  0  0  0  0  0
   -0.1459    3.7548    0.0000 C   0  0  0  0  0  0  0  0  0  0  0  0
   -1.6131    3.4430    0.0000 O   0  0  0  0  0  0  0  0  0  0  0  0
    0.8578    2.6401    0.0000 C   0  0  0  0  0  0  0  0  0  0  0  0
    0.3943    1.2135    0.0000 C   0  0  0  0  0  0  0  0  0  0  0  0
    1.2760    0.0000    0.0000 N   0  0  0  0  0  0  0  0  0  0  0  0
    0.3943   -1.2135    0.0000 C   0  0  0  0  0  0  0  0  0  0  0  0
    0.7062   -2.6807    0.0000 C   0  0  0  0  0  0  0  0  0  0  0  0
   -0.4086   -3.6844    0.0000 C   0  0  0  0  0  0  0  0  0  0  0  0
   -1.8351   -3.2209    0.0000 C   0  0  0  0  0  0  0  0  0  0  0  0
   -2.1470   -1.7537    0.0000 C   0  0  0  0  0  0  0  0  0  0  0  0
   -1.0323   -0.7500    0.0000 C   0  0  0  0  0  0  0  0  0  0  0  0
   -1.0323    0.7500    0.0000 N   0  0  0  0  0  0  0  0  0  0  0  0
   -2.7168   -4.4344    0.0000 C   0  0  0  0  0  0  0  0  0  0  0  0
   -4.2168   -4.4344    0.0000 O   0  0  0  0  0  0  0  0  0  0  0  0
   -1.8351   -5.6480    0.0000 N   0  0  0  0  0  0  0  0  0  0  0  0
   -2.2987   -7.0746    0.0000 C   0  0  0  0  0  0  0  0  0  0  0  0
   -3.7659   -7.3864    0.0000 C   0  0  0  0  0  0  0  0  0  0  0  0
   -4.2294   -8.8130    0.0000 N   0  0  0  0  0  0  0  0  0  0  0  0
   -5.6966   -9.1249    0.0000 C   0  0  0  0  0  0  0  0  0  0  0  0
   -3.2257   -9.9277    0.0000 C   0  0  0  0  0  0  0  0  0  0  0  0
   -0.4086   -5.1844    0.0000 C   0  0  0  0  0  0  0  0  0  0  0  0
    0.8050   -6.0661    0.0000 O   0  0  0  0  0  0  0  0  0  0  0  0
  1  2  1  0
  2  3  1  0
  3  4  1  0
  4  5  2  0
  5  6  1  0
  6  7  1  0
  6  8  2  0
  8  9  1  0
  9 10  2  0
 10 11  1  0
  2 12  1  0
 12 13  1  0
 13 14  1  0
 14 15  2  0
 15 16  1  0
 16 17  1  0
 17 18  2  0
 17 19  1  0
 19 20  1  0
 20 21  2  0
 21 22  1  0
 22 23  2  0
 23 24  1  0
 24 25  2  0
 25 26  1  0
 26 27  2  0
 27 28  1  0
 25 29  1  0
 29 30  2  0
 29 31  1  0
 31 32  1  0
 32 33  1  0
 33 34  1  0
 34 35  1  0
 34 36  1  0
 31 37  1  0
 37 38  2  0
 10  4  1  0
 19 13  2  0
 28 20  1  0
 27 22  1  0
 37 24  1  0
M  END
>  <Compound_ID>  (161) 
CHEMBL3671317

>  <Molecule Name>  (161) 
nan

>  <Molecular Weight>  (161) 
520.54

>  <AlogP>  (161) 
3.4

>  <Smiles>  (161) 
CC(Cc1cc(F)ccc1F)Nc1cc[nH]c(=O)c1-c1nc2cc3c(cc2[nH]1)C(=O)N(CCN(C)C)C3=O

>  <Standard Type>  (161) 
IC50

>  <Standard Relation>  (161) 
'='

>  <Standard Units>  (161) 
nM

>  <Standard Value>  (161) 
17.48

>  <Assay ChEMBL ID>  (161) 
CHEMBL3887072

>  <Assay Description>  (161) 
In Vitro Kinase Activity Assay: Compounds to be tested were dissolved in 100% DMSO in a range of concentrations from 10-8 to 10-3 M including negative control (DMSO), then diluted with Kinase Buffer (50 mM HEPES, pH 7.5, 1 mM EGTA, 10 mM MgCl2, 0.01% Tween-20, and 2 mM DTT, added fresh) to 4x the final concentration. The final curve included 11 concentrations (10-11 to 10-5 M) plus negative control DMSO tested in triplicate.Kinase and ATP concentrations necessary for optimal activity were determined in separate experiments. (Table 2). Briefly, increasing concentrations of kinase were incubated in a fixed concentration of ATP (200 uM) in Kinase Buffer to determine maximal activity at various time points (30-120 min). The concentration of kinase that resulted in maximal activity with the shortest incubation time was then incubated in Kinase Buffer with increasing concentrations of ATP.

>  <BAO Format ID>  (161) 
BAO_0000357

>  <BAO Label>  (161) 
single protein format

>  <Assay Organism>  (161) 
None

>  <Target ChEMBL ID>  (161) 
CHEMBL2815

>  <Target Name>  (161) 
Nerve growth factor receptor Trk-A

>  <Target Organism>  (161) 
Homo sapiens

>  <Target Type>  (161) 
SINGLE PROTEIN

>  <Document ChEMBL ID>  (161) 
CHEMBL3639188

>  <Source Description>  (161) 
BindingDB Database

>  <Document Journal>  (161) 
nan

>  <Document Year>  (161) 
2014.0

>  <Active>  (161) 
1.0

>  <bits>  (161) 
<rdkit.DataStructs.cDataStructs.ExplicitBitVect object at 0x00000159F60344A0>

>  <Group>  (161) 
G2

$$$$

     RDKit          2D

 32 35  0  0  0  0  0  0  0  0999 V2000
  -14.0921   -2.9925    0.0000 C   0  0  0  0  0  0  0  0  0  0  0  0
  -13.4820   -4.3628    0.0000 C   0  0  0  0  0  0  0  0  0  0  0  0
  -14.3637   -5.5763    0.0000 C   0  0  0  0  0  0  0  0  0  0  0  0
  -11.9903   -4.5196    0.0000 C   0  0  0  0  0  0  0  0  0  0  0  0
  -11.2403   -5.8186    0.0000 C   0  0  0  0  0  0  0  0  0  0  0  0
   -9.7730   -5.5068    0.0000 N   0  0  0  0  0  0  0  0  0  0  0  0
   -8.6583   -6.5105    0.0000 C   0  0  0  0  0  0  0  0  0  0  0  0
   -7.2317   -6.0469    0.0000 C   0  0  0  0  0  0  0  0  0  0  0  0
   -6.9199   -4.5797    0.0000 O   0  0  0  0  0  0  0  0  0  0  0  0
   -6.1170   -7.0506    0.0000 N   0  0  0  0  0  0  0  0  0  0  0  0
   -4.6904   -6.5871    0.0000 C   0  0  0  0  0  0  0  0  0  0  0  0
   -3.5757   -7.5908    0.0000 C   0  0  0  0  0  0  0  0  0  0  0  0
   -2.1491   -7.1273    0.0000 N   0  0  0  0  0  0  0  0  0  0  0  0
   -1.8373   -5.6601    0.0000 C   0  0  0  0  0  0  0  0  0  0  0  0
   -2.9520   -4.6564    0.0000 C   0  0  0  0  0  0  0  0  0  0  0  0
   -2.6401   -3.1891    0.0000 C   0  0  0  0  0  0  0  0  0  0  0  0
   -3.7548   -2.1855    0.0000 O   0  0  0  0  0  0  0  0  0  0  0  0
   -1.2135   -2.7256    0.0000 C   0  0  0  0  0  0  0  0  0  0  0  0
   -0.0000   -3.6073    0.0000 C   0  0  0  0  0  0  0  0  0  0  0  0
    1.2135   -2.7256    0.0000 N   0  0  0  0  0  0  0  0  0  0  0  0
    2.6401   -3.1891    0.0000 C   0  0  0  0  0  0  0  0  0  0  0  0
    2.9520   -4.6564    0.0000 C   0  0  0  0  0  0  0  0  0  0  0  0
    3.7548   -2.1855    0.0000 C   0  0  0  0  0  0  0  0  0  0  0  0
    0.7500   -1.2990    0.0000 C   0  0  0  0  0  0  0  0  0  0  0  0
    1.5000    0.0000    0.0000 C   0  0  0  0  0  0  0  0  0  0  0  0
    0.7500    1.2990    0.0000 C   0  0  0  0  0  0  0  0  0  0  0  0
   -0.7500    1.2990    0.0000 N   0  0  0  0  0  0  0  0  0  0  0  0
   -1.5000    0.0000    0.0000 C   0  0  0  0  0  0  0  0  0  0  0  0
   -0.7500   -1.2990    0.0000 C   0  0  0  0  0  0  0  0  0  0  0  0
   -4.3786   -5.1199    0.0000 C   0  0  0  0  0  0  0  0  0  0  0  0
   -9.6162   -4.0150    0.0000 N   0  0  0  0  0  0  0  0  0  0  0  0
  -10.9866   -3.4049    0.0000 N   0  0  0  0  0  0  0  0  0  0  0  0
  1  2  1  0
  2  3  1  0
  2  4  1  0
  4  5  2  0
  5  6  1  0
  6  7  1  0
  7  8  1  0
  8  9  2  0
  8 10  1  0
 10 11  1  0
 11 12  2  0
 12 13  1  0
 13 14  2  0
 14 15  1  0
 15 16  1  0
 16 17  2  0
 16 18  1  0
 18 19  2  0
 19 20  1  0
 20 21  1  0
 21 22  1  0
 21 23  1  0
 20 24  1  0
 24 25  2  0
 25 26  1  0
 26 27  2  0
 27 28  1  0
 28 29  2  0
 15 30  2  0
  6 31  1  0
 31 32  2  0
 32  4  1  0
 30 11  1  0
 29 18  1  0
 29 24  1  0
M  END
>  <Compound_ID>  (162) 
CHEMBL3961141

>  <Molecule Name>  (162) 
nan

>  <Molecular Weight>  (162) 
431.5

>  <AlogP>  (162) 
3.6

>  <Smiles>  (162) 
CC(C)c1cn(CC(=O)Nc2cncc(C(=O)c3cn(C(C)C)c4ccncc34)c2)nn1

>  <Standard Type>  (162) 
IC50

>  <Standard Relation>  (162) 
'='

>  <Standard Units>  (162) 
nM

>  <Standard Value>  (162) 
59.5

>  <Assay ChEMBL ID>  (162) 
CHEMBL3887111

>  <Assay Description>  (162) 
HTRF Assay: Isolated TRK Enzyme assays use the HTRF KinEASE-TK kit (Cisbio Cat#62TK0PEJ) with recombinant His-tagged cytoplasmic domains of each TRK receptor sourced from Invitrogen (see table below). This activity-assay measures the phosphorylation of tyrosine residues within a substrate from the HTRF kit which has been validated by Cisbio for a variety of tyrosine kinases including the TRK receptors.Assay Details: Invitrogen Amino FAC FAC Assay ReactionTarget Cat# acids enzyme ATP TimeTRKA PV3144 aa 441-4 nM 40 uM 35 min (NTRK1) 796 TRKB PV3616 aa 526-1 nM 1.4 uM 40 min (NTRK2) 838 TRKC PV3617 aa 510- 10 nM 15 uM 30 min (NTRK3) 8250.5 mM stock solutions of test compounds are prepared and serially diluted in 100% DMSO. A standard curve using the compound of Example 135 disclosed in WO2005/116035 of 150 uM is also prepared on each test plate. High percentage effect (HPE) is defined by 150 uM.

>  <BAO Format ID>  (162) 
BAO_0000357

>  <BAO Label>  (162) 
single protein format

>  <Assay Organism>  (162) 
None

>  <Target ChEMBL ID>  (162) 
CHEMBL2815

>  <Target Name>  (162) 
Nerve growth factor receptor Trk-A

>  <Target Organism>  (162) 
Homo sapiens

>  <Target Type>  (162) 
SINGLE PROTEIN

>  <Document ChEMBL ID>  (162) 
CHEMBL3886170

>  <Source Description>  (162) 
BindingDB Database

>  <Document Journal>  (162) 
nan

>  <Document Year>  (162) 
2015.0

>  <Active>  (162) 
1.0

>  <bits>  (162) 
<rdkit.DataStructs.cDataStructs.ExplicitBitVect object at 0x00000159F6035AF0>

>  <Group>  (162) 
G2

$$$$

     RDKit          2D

 31 35  0  0  0  0  0  0  0  0999 V2000
   -3.7548   -2.1855    0.0000 O   0  0  0  0  0  0  0  0  0  0  0  0
   -2.6401   -3.1891    0.0000 C   0  0  0  0  0  0  0  0  0  0  0  0
   -2.9520   -4.6564    0.0000 N   0  0  0  0  0  0  0  0  0  0  0  0
   -4.3786   -5.1199    0.0000 C   0  0  0  0  0  0  0  0  0  0  0  0
   -4.1698   -6.6053    0.0000 C   0  0  0  0  0  0  0  0  0  0  0  0
   -3.9610   -8.0907    0.0000 F   0  0  0  0  0  0  0  0  0  0  0  0
   -5.6552   -6.8141    0.0000 F   0  0  0  0  0  0  0  0  0  0  0  0
   -2.6844   -6.3965    0.0000 F   0  0  0  0  0  0  0  0  0  0  0  0
   -5.8776   -5.0675    0.0000 C   0  0  0  0  0  0  0  0  0  0  0  0
   -5.0828   -3.7955    0.0000 C   0  0  0  0  0  0  0  0  0  0  0  0
   -1.2135   -2.7256    0.0000 C   0  0  0  0  0  0  0  0  0  0  0  0
   -0.0000   -3.6073    0.0000 C   0  0  0  0  0  0  0  0  0  0  0  0
    1.2135   -2.7256    0.0000 N   0  0  0  0  0  0  0  0  0  0  0  0
    0.7500   -1.2990    0.0000 N   0  0  0  0  0  0  0  0  0  0  0  0
    1.5000    0.0000    0.0000 C   0  0  0  0  0  0  0  0  0  0  0  0
    0.7500    1.2990    0.0000 C   0  0  0  0  0  0  0  0  0  0  0  0
   -0.7500    1.2990    0.0000 C   0  0  0  0  0  0  0  0  0  0  0  0
   -1.5000    2.5981    0.0000 N   0  0  0  0  0  0  0  0  0  0  0  0
   -2.9918    2.7549    0.0000 C   0  0  0  0  0  0  0  0  0  0  0  0
   -3.3037    4.2221    0.0000 C   0  0  0  0  0  0  0  0  0  0  0  0
   -2.0046    4.9721    0.0000 C   0  0  0  0  0  0  0  0  0  0  0  0
   -0.8899    3.9684    0.0000 C   0  0  0  0  0  0  0  0  0  0  0  0
    0.5773    4.2803    0.0000 C   0  0  0  0  0  0  0  0  0  0  0  0
    1.5810    3.1655    0.0000 C   0  0  0  0  0  0  0  0  0  0  0  0
    3.0482    3.4774    0.0000 N   0  0  0  0  0  0  0  0  0  0  0  0
    3.5118    4.9040    0.0000 C   0  0  0  0  0  0  0  0  0  0  0  0
    2.5081    6.0187    0.0000 C   0  0  0  0  0  0  0  0  0  0  0  0
    2.9716    7.4453    0.0000 F   0  0  0  0  0  0  0  0  0  0  0  0
    1.0409    5.7068    0.0000 C   0  0  0  0  0  0  0  0  0  0  0  0
   -1.5000    0.0000    0.0000 N   0  0  0  0  0  0  0  0  0  0  0  0
   -0.7500   -1.2990    0.0000 C   0  0  0  0  0  0  0  0  0  0  0  0
  1  2  2  0
  2  3  1  0
  3  4  1  0
  4  5  1  0
  5  6  1  0
  5  7  1  0
  5  8  1  0
  4  9  1  0
  9 10  1  0
  2 11  1  0
 11 12  1  0
 12 13  2  0
 13 14  1  0
 14 15  1  0
 15 16  2  0
 16 17  1  0
 17 18  1  0
 18 19  1  0
 19 20  1  0
 20 21  1  0
 21 22  1  0
 22 23  1  6
 23 24  2  0
 24 25  1  0
 25 26  2  0
 26 27  1  0
 27 28  1  0
 27 29  2  0
 17 30  2  0
 30 31  1  0
 10  4  1  0
 31 11  2  0
 31 14  1  0
 22 18  1  0
 29 23  1  0
M  END
>  <Compound_ID>  (163) 
CHEMBL3675973

>  <Molecule Name>  (163) 
nan

>  <Molecular Weight>  (163) 
434.4

>  <AlogP>  (163) 
3.43

>  <Smiles>  (163) 
O=C(NC1(C(F)(F)F)CC1)c1cnn2ccc(N3CCC[C@@H]3c3cncc(F)c3)nc12

>  <Standard Type>  (163) 
IC50

>  <Standard Relation>  (163) 
'='

>  <Standard Units>  (163) 
nM

>  <Standard Value>  (163) 
9.0

>  <Assay ChEMBL ID>  (163) 
CHEMBL3887070

>  <Assay Description>  (163) 
ELISA Assay: An enzyme-linked immunosorbant assay (ELISA) was used to assess TrkA kinase activity in the presence of inhibitors. Immulon 4HBX 384-well microtiter plates (Thermo part #8755) were coated with a 0.025 mg/mL solution of poly (Glu, Ala, Tyr; 6:3:1; Sigma P3899). Various concentrations of test compound, 2.5 nM TrkA (Invitrogen Corp., histidine-tagged recombinant human TrkA, cytoplasmic domain), and 500 uM ATP were incubated for 25 minutes at ambient temperature in the coated plates while shaking The assay buffer consisted of 25 mM MOPS pH 7.5, 0.005% (v/v) Triton X-100 and 5 mM MgCl2. The reaction mixture was removed from the plate by washing with PBS containing 0.1% (v/v) Tween 20. The phosphorylated reaction product was detected using 0.2 ug/mL of a phosphotyrosine specific monoclonal antibody (clone PY20) conjugated to horseradish peroxidase in conjunction with the TMB Peroxidase Substrate System (KPL).

>  <BAO Format ID>  (163) 
BAO_0000357

>  <BAO Label>  (163) 
single protein format

>  <Assay Organism>  (163) 
None

>  <Target ChEMBL ID>  (163) 
CHEMBL2815

>  <Target Name>  (163) 
Nerve growth factor receptor Trk-A

>  <Target Organism>  (163) 
Homo sapiens

>  <Target Type>  (163) 
SINGLE PROTEIN

>  <Document ChEMBL ID>  (163) 
CHEMBL3638907

>  <Source Description>  (163) 
BindingDB Database

>  <Document Journal>  (163) 
nan

>  <Document Year>  (163) 
2014.0

>  <Active>  (163) 
1.0

>  <bits>  (163) 
<rdkit.DataStructs.cDataStructs.ExplicitBitVect object at 0x00000159F6036880>

>  <Group>  (163) 
G2

$$$$

     RDKit          2D

 33 37  0  0  0  0  0  0  0  0999 V2000
    7.3934   -3.6905    0.0000 C   0  0  0  0  0  0  0  0  0  0  0  0
    5.9262   -3.3786    0.0000 O   0  0  0  0  0  0  0  0  0  0  0  0
    5.4627   -1.9520    0.0000 C   0  0  0  0  0  0  0  0  0  0  0  0
    6.4664   -0.8373    0.0000 N   0  0  0  0  0  0  0  0  0  0  0  0
    6.0029    0.5893    0.0000 C   0  0  0  0  0  0  0  0  0  0  0  0
    4.5356    0.9012    0.0000 C   0  0  0  0  0  0  0  0  0  0  0  0
    4.0721    2.3277    0.0000 F   0  0  0  0  0  0  0  0  0  0  0  0
    3.5320   -0.2136    0.0000 C   0  0  0  0  0  0  0  0  0  0  0  0
    3.9955   -1.6402    0.0000 C   0  0  0  0  0  0  0  0  0  0  0  0
    2.9918   -2.7549    0.0000 C   0  0  0  0  0  0  0  0  0  0  0  0
    3.3037   -4.2221    0.0000 C   0  0  0  0  0  0  0  0  0  0  0  0
    2.0046   -4.9721    0.0000 C   0  0  0  0  0  0  0  0  0  0  0  0
    0.8899   -3.9684    0.0000 C   0  0  0  0  0  0  0  0  0  0  0  0
    1.5000   -2.5981    0.0000 N   0  0  0  0  0  0  0  0  0  0  0  0
    0.7500   -1.2990    0.0000 C   0  0  0  0  0  0  0  0  0  0  0  0
    1.5000    0.0000    0.0000 C   0  0  0  0  0  0  0  0  0  0  0  0
    0.7500    1.2990    0.0000 C   0  0  0  0  0  0  0  0  0  0  0  0
   -0.7500    1.2990    0.0000 N   0  0  0  0  0  0  0  0  0  0  0  0
   -1.7537    2.4138    0.0000 N   0  0  0  0  0  0  0  0  0  0  0  0
   -3.1240    1.8037    0.0000 C   0  0  0  0  0  0  0  0  0  0  0  0
   -2.9672    0.3119    0.0000 C   0  0  0  0  0  0  0  0  0  0  0  0
   -4.0819   -0.6918    0.0000 C   0  0  0  0  0  0  0  0  0  0  0  0
   -3.7701   -2.1590    0.0000 O   0  0  0  0  0  0  0  0  0  0  0  0
   -5.5085   -0.2283    0.0000 N   0  0  0  0  0  0  0  0  0  0  0  0
   -6.6232   -1.2320    0.0000 C   0  0  0  0  0  0  0  0  0  0  0  0
   -8.0498   -0.7685    0.0000 C   0  0  0  0  0  0  0  0  0  0  0  0
   -9.1645   -1.7722    0.0000 C   0  0  0  0  0  0  0  0  0  0  0  0
   -8.8527   -3.2394    0.0000 C   0  0  0  0  0  0  0  0  0  0  0  0
   -9.9674   -4.2431    0.0000 O   0  0  0  0  0  0  0  0  0  0  0  0
   -7.4261   -3.7029    0.0000 N   0  0  0  0  0  0  0  0  0  0  0  0
   -6.3114   -2.6992    0.0000 C   0  0  0  0  0  0  0  0  0  0  0  0
   -1.5000    0.0000    0.0000 C   0  0  0  0  0  0  0  0  0  0  0  0
   -0.7500   -1.2990    0.0000 N   0  0  0  0  0  0  0  0  0  0  0  0
  1  2  1  0
  2  3  1  0
  3  4  2  0
  4  5  1  0
  5  6  2  0
  6  7  1  0
  6  8  1  0
  8  9  2  0
 10  9  1  1
 10 11  1  0
 11 12  1  0
 12 13  1  0
 13 14  1  0
 14 15  1  0
 15 16  1  0
 16 17  2  0
 17 18  1  0
 18 19  1  0
 19 20  2  0
 20 21  1  0
 21 22  1  0
 22 23  2  0
 22 24  1  0
 24 25  1  0
 25 26  1  0
 26 27  2  0
 27 28  1  0
 28 29  2  0
 28 30  1  0
 30 31  1  0
 21 32  2  0
 32 33  1  0
  9  3  1  0
 14 10  1  0
 33 15  2  0
 32 18  1  0
 31 25  2  0
M  END
>  <Compound_ID>  (164) 
CHEMBL3676032

>  <Molecule Name>  (164) 
nan

>  <Molecular Weight>  (164) 
449.45

>  <AlogP>  (164) 
2.55

>  <Smiles>  (164) 
COc1ncc(F)cc1[C@H]1CCCN1c1ccn2ncc(C(=O)Nc3ccc(=O)[nH]c3)c2n1

>  <Standard Type>  (164) 
IC50

>  <Standard Relation>  (164) 
'='

>  <Standard Units>  (164) 
nM

>  <Standard Value>  (164) 
3.0

>  <Assay ChEMBL ID>  (164) 
CHEMBL3887070

>  <Assay Description>  (164) 
ELISA Assay: An enzyme-linked immunosorbant assay (ELISA) was used to assess TrkA kinase activity in the presence of inhibitors. Immulon 4HBX 384-well microtiter plates (Thermo part #8755) were coated with a 0.025 mg/mL solution of poly (Glu, Ala, Tyr; 6:3:1; Sigma P3899). Various concentrations of test compound, 2.5 nM TrkA (Invitrogen Corp., histidine-tagged recombinant human TrkA, cytoplasmic domain), and 500 uM ATP were incubated for 25 minutes at ambient temperature in the coated plates while shaking The assay buffer consisted of 25 mM MOPS pH 7.5, 0.005% (v/v) Triton X-100 and 5 mM MgCl2. The reaction mixture was removed from the plate by washing with PBS containing 0.1% (v/v) Tween 20. The phosphorylated reaction product was detected using 0.2 ug/mL of a phosphotyrosine specific monoclonal antibody (clone PY20) conjugated to horseradish peroxidase in conjunction with the TMB Peroxidase Substrate System (KPL).

>  <BAO Format ID>  (164) 
BAO_0000357

>  <BAO Label>  (164) 
single protein format

>  <Assay Organism>  (164) 
None

>  <Target ChEMBL ID>  (164) 
CHEMBL2815

>  <Target Name>  (164) 
Nerve growth factor receptor Trk-A

>  <Target Organism>  (164) 
Homo sapiens

>  <Target Type>  (164) 
SINGLE PROTEIN

>  <Document ChEMBL ID>  (164) 
CHEMBL3638907

>  <Source Description>  (164) 
BindingDB Database

>  <Document Journal>  (164) 
nan

>  <Document Year>  (164) 
2014.0

>  <Active>  (164) 
1.0

>  <bits>  (164) 
<rdkit.DataStructs.cDataStructs.ExplicitBitVect object at 0x00000159F6034430>

>  <Group>  (164) 
G2

$$$$

     RDKit          2D

 35 39  0  0  0  0  0  0  0  0999 V2000
   -6.9199   -4.5797    0.0000 O   0  0  0  0  0  0  0  0  0  0  0  0
   -7.2317   -6.0469    0.0000 C   0  0  0  0  0  0  0  0  0  0  0  0
   -8.6583   -6.5105    0.0000 C   0  0  0  0  0  0  0  0  0  0  0  0
   -9.7730   -5.5068    0.0000 N   0  0  0  0  0  0  0  0  0  0  0  0
  -11.2403   -5.8186    0.0000 C   0  0  0  0  0  0  0  0  0  0  0  0
  -11.9903   -4.5196    0.0000 C   0  0  0  0  0  0  0  0  0  0  0  0
  -10.9866   -3.4049    0.0000 C   0  0  0  0  0  0  0  0  0  0  0  0
  -11.2984   -1.9377    0.0000 C   0  0  0  0  0  0  0  0  0  0  0  0
  -11.6103   -0.4704    0.0000 F   0  0  0  0  0  0  0  0  0  0  0  0
   -9.8312   -1.6258    0.0000 F   0  0  0  0  0  0  0  0  0  0  0  0
  -12.7656   -2.2495    0.0000 F   0  0  0  0  0  0  0  0  0  0  0  0
   -9.6162   -4.0150    0.0000 N   0  0  0  0  0  0  0  0  0  0  0  0
   -6.1170   -7.0506    0.0000 N   0  0  0  0  0  0  0  0  0  0  0  0
   -4.6904   -6.5871    0.0000 C   0  0  0  0  0  0  0  0  0  0  0  0
   -3.5757   -7.5908    0.0000 C   0  0  0  0  0  0  0  0  0  0  0  0
   -2.1491   -7.1273    0.0000 N   0  0  0  0  0  0  0  0  0  0  0  0
   -1.8373   -5.6601    0.0000 C   0  0  0  0  0  0  0  0  0  0  0  0
   -2.9520   -4.6564    0.0000 C   0  0  0  0  0  0  0  0  0  0  0  0
   -2.6401   -3.1891    0.0000 C   0  0  0  0  0  0  0  0  0  0  0  0
   -3.7548   -2.1855    0.0000 O   0  0  0  0  0  0  0  0  0  0  0  0
   -1.2135   -2.7256    0.0000 C   0  0  0  0  0  0  0  0  0  0  0  0
   -0.0000   -3.6073    0.0000 C   0  0  0  0  0  0  0  0  0  0  0  0
    1.2135   -2.7256    0.0000 N   0  0  0  0  0  0  0  0  0  0  0  0
    2.6401   -3.1891    0.0000 C   0  0  0  0  0  0  0  0  0  0  0  0
    3.3443   -1.8647    0.0000 C   0  0  0  0  0  0  0  0  0  0  0  0
    4.8434   -1.8124    0.0000 O   0  0  0  0  0  0  0  0  0  0  0  0
    3.8221   -4.1126    0.0000 C   0  0  0  0  0  0  0  0  0  0  0  0
    2.4314   -4.6746    0.0000 C   0  0  0  0  0  0  0  0  0  0  0  0
    0.7500   -1.2990    0.0000 C   0  0  0  0  0  0  0  0  0  0  0  0
    1.5000    0.0000    0.0000 N   0  0  0  0  0  0  0  0  0  0  0  0
    0.7500    1.2990    0.0000 C   0  0  0  0  0  0  0  0  0  0  0  0
   -0.7500    1.2990    0.0000 N   0  0  0  0  0  0  0  0  0  0  0  0
   -1.5000    0.0000    0.0000 C   0  0  0  0  0  0  0  0  0  0  0  0
   -0.7500   -1.2990    0.0000 C   0  0  0  0  0  0  0  0  0  0  0  0
   -4.3786   -5.1199    0.0000 C   0  0  0  0  0  0  0  0  0  0  0  0
  1  2  2  0
  2  3  1  0
  3  4  1  0
  4  5  1  0
  5  6  2  0
  6  7  1  0
  7  8  1  0
  8  9  1  0
  8 10  1  0
  8 11  1  0
  7 12  2  0
  2 13  1  0
 13 14  1  0
 14 15  2  0
 15 16  1  0
 16 17  2  0
 17 18  1  0
 18 19  1  0
 19 20  2  0
 19 21  1  0
 21 22  2  0
 22 23  1  0
 23 24  1  0
 24 25  1  0
 25 26  1  0
 24 27  1  0
 27 28  1  0
 23 29  1  0
 29 30  2  0
 30 31  1  0
 31 32  2  0
 32 33  1  0
 33 34  2  0
 18 35  2  0
 12  4  1  0
 35 14  1  0
 34 21  1  0
 28 24  1  0
 34 29  1  0
M  END
>  <Compound_ID>  (165) 
CHEMBL3671403

>  <Molecule Name>  (165) 
nan

>  <Molecular Weight>  (165) 
485.43

>  <AlogP>  (165) 
2.39

>  <Smiles>  (165) 
O=C(Cn1ccc(C(F)(F)F)n1)Nc1cncc(C(=O)c2cn(C3(CO)CC3)c3ncncc23)c1

>  <Standard Type>  (165) 
IC50

>  <Standard Relation>  (165) 
'='

>  <Standard Units>  (165) 
nM

>  <Standard Value>  (165) 
9.48

>  <Assay ChEMBL ID>  (165) 
CHEMBL3887033

>  <Assay Description>  (165) 
Enzyme Assay: Isolated TRK Enzyme assays use the HTRF KinEASE-TK kit (Cisbio Cat# 62TK0PEJ) with recombinant His-tagged cytoplasmic domains of each TRK receptor sourced from Invitrogen (see table below). This activity-assay measures the phosphorylation of tyrosine residues within a substrate from the HTRF kit which has been validated by Cisbio for a variety of tyrosine kinases including the TRK receptors. Assay details: Target:TRKA; Invitrogen Cat# PV3144; Amino acids:aa 441-796; FAC enzyme:4nM; FAC ATP:40uM; Assay Reaction Time:35min.

>  <BAO Format ID>  (165) 
BAO_0000357

>  <BAO Label>  (165) 
single protein format

>  <Assay Organism>  (165) 
None

>  <Target ChEMBL ID>  (165) 
CHEMBL2815

>  <Target Name>  (165) 
Nerve growth factor receptor Trk-A

>  <Target Organism>  (165) 
Homo sapiens

>  <Target Type>  (165) 
SINGLE PROTEIN

>  <Document ChEMBL ID>  (165) 
CHEMBL3639348

>  <Source Description>  (165) 
BindingDB Database

>  <Document Journal>  (165) 
nan

>  <Document Year>  (165) 
2014.0

>  <Active>  (165) 
1.0

>  <bits>  (165) 
<rdkit.DataStructs.cDataStructs.ExplicitBitVect object at 0x00000159F60357E0>

>  <Group>  (165) 
G2

$$$$

     RDKit          2D

 36 40  0  0  0  0  0  0  0  0999 V2000
  -10.8275   -4.2722    0.0000 C   0  0  0  0  0  0  0  0  0  0  0  0
  -10.3639   -5.6988    0.0000 C   0  0  0  0  0  0  0  0  0  0  0  0
   -9.9004   -7.1254    0.0000 C   0  0  0  0  0  0  0  0  0  0  0  0
  -11.7905   -6.1623    0.0000 C   0  0  0  0  0  0  0  0  0  0  0  0
   -8.9374   -5.2352    0.0000 O   0  0  0  0  0  0  0  0  0  0  0  0
   -7.8226   -6.2389    0.0000 C   0  0  0  0  0  0  0  0  0  0  0  0
   -8.1345   -7.7062    0.0000 O   0  0  0  0  0  0  0  0  0  0  0  0
   -6.3961   -5.7754    0.0000 N   0  0  0  0  0  0  0  0  0  0  0  0
   -5.7151   -4.4389    0.0000 C   0  0  0  0  0  0  0  0  0  0  0  0
   -4.3786   -5.1199    0.0000 C   0  0  0  0  0  0  0  0  0  0  0  0
   -2.9520   -4.6564    0.0000 C   0  0  0  0  0  0  0  0  0  0  0  0
   -1.8373   -5.6601    0.0000 O   0  0  0  0  0  0  0  0  0  0  0  0
   -2.6401   -3.1891    0.0000 N   0  0  0  0  0  0  0  0  0  0  0  0
   -1.2135   -2.7256    0.0000 C   0  0  0  0  0  0  0  0  0  0  0  0
   -0.0000   -3.6073    0.0000 C   0  0  0  0  0  0  0  0  0  0  0  0
    1.2135   -2.7256    0.0000 N   0  0  0  0  0  0  0  0  0  0  0  0
    0.7500   -1.2990    0.0000 N   0  0  0  0  0  0  0  0  0  0  0  0
    1.5000    0.0000    0.0000 C   0  0  0  0  0  0  0  0  0  0  0  0
    0.7500    1.2990    0.0000 C   0  0  0  0  0  0  0  0  0  0  0  0
   -0.7500    1.2990    0.0000 C   0  0  0  0  0  0  0  0  0  0  0  0
   -1.5000    2.5981    0.0000 N   0  0  0  0  0  0  0  0  0  0  0  0
   -2.9918    2.7549    0.0000 C   0  0  0  0  0  0  0  0  0  0  0  0
   -3.3037    4.2221    0.0000 C   0  0  0  0  0  0  0  0  0  0  0  0
   -2.0046    4.9721    0.0000 C   0  0  0  0  0  0  0  0  0  0  0  0
   -0.8899    3.9684    0.0000 C   0  0  0  0  0  0  0  0  0  0  0  0
    0.5773    4.2803    0.0000 C   0  0  0  0  0  0  0  0  0  0  0  0
    1.5810    3.1655    0.0000 C   0  0  0  0  0  0  0  0  0  0  0  0
    3.0482    3.4774    0.0000 C   0  0  0  0  0  0  0  0  0  0  0  0
    4.0519    2.3627    0.0000 F   0  0  0  0  0  0  0  0  0  0  0  0
    3.5118    4.9040    0.0000 C   0  0  0  0  0  0  0  0  0  0  0  0
    2.5081    6.0187    0.0000 C   0  0  0  0  0  0  0  0  0  0  0  0
    1.0409    5.7068    0.0000 C   0  0  0  0  0  0  0  0  0  0  0  0
    0.0372    6.8216    0.0000 Cl  0  0  0  0  0  0  0  0  0  0  0  0
   -1.5000    0.0000    0.0000 N   0  0  0  0  0  0  0  0  0  0  0  0
   -0.7500   -1.2990    0.0000 C   0  0  0  0  0  0  0  0  0  0  0  0
   -5.0595   -6.4564    0.0000 C   0  0  0  0  0  0  0  0  0  0  0  0
  1  2  1  0
  2  3  1  0
  2  4  1  0
  2  5  1  0
  5  6  1  0
  6  7  2  0
  6  8  1  0
  8  9  1  0
  9 10  1  0
 10 11  1  0
 11 12  2  0
 11 13  1  0
 13 14  1  0
 14 15  1  0
 15 16  2  0
 16 17  1  0
 17 18  1  0
 18 19  2  0
 19 20  1  0
 20 21  1  0
 21 22  1  0
 22 23  1  0
 23 24  1  0
 24 25  1  0
 25 26  1  6
 26 27  2  0
 27 28  1  0
 28 29  1  0
 28 30  2  0
 30 31  1  0
 31 32  2  0
 32 33  1  0
 20 34  2  0
 34 35  1  0
 10 36  1  0
 36  8  1  0
 35 14  2  0
 35 17  1  0
 25 21  1  0
 32 26  1  0
M  END
>  <Compound_ID>  (166) 
CHEMBL4112257

>  <Molecule Name>  (166) 
nan

>  <Molecular Weight>  (166) 
514.99

>  <AlogP>  (166) 
4.67

>  <Smiles>  (166) 
CC(C)(C)OC(=O)N1CC(C(=O)Nc2cnn3ccc(N4CCC[C@@H]4c4cc(F)ccc4Cl)nc23)C1

>  <Standard Type>  (166) 
IC50

>  <Standard Relation>  (166) 
'='

>  <Standard Units>  (166) 
nM

>  <Standard Value>  (166) 
37.3

>  <Assay ChEMBL ID>  (166) 
CHEMBL3887076

>  <Assay Description>  (166) 
ELISA Assay: An enzyme-linked immunosorbant assay (ELISA) was used to assess TrkA kinase activity in the presence of inhibitors. Immulon 4HBX 384-well microtiter plates (Thermo part #8755) were coated with a 0.025 mg/mL solution of poly (Glu, Ala, Tyr; 6:3:1; Sigma P3899). Various concentrations of test compound, 2.5 nM TrkA (Invitrogen Corp., histidine-tagged recombinant human TrkA, cytoplasmic domain), and 500 uM ATP were incubated for 25 minutes at ambient temperature in the coated plates while shaking. The assay buffer consisted of 25 mM MOPS pH 7.5, 0.005% (v/v) Triton X-100 and 5 mM MgCl2. The reaction mixture was removed from the plate by washing with PBS containing 0.1% (v/v) Tween 20. The phosphorylated reaction product was detected using 0.2 ug/mL of a phosphotyrosine specific monoclonal antibody (clone PY20) conjugated to horseradish peroxidase in conjunction with the TMB Peroxidase Substrate System (KPL).

>  <BAO Format ID>  (166) 
BAO_0000357

>  <BAO Label>  (166) 
single protein format

>  <Assay Organism>  (166) 
None

>  <Target ChEMBL ID>  (166) 
CHEMBL2815

>  <Target Name>  (166) 
Nerve growth factor receptor Trk-A

>  <Target Organism>  (166) 
Homo sapiens

>  <Target Type>  (166) 
SINGLE PROTEIN

>  <Document ChEMBL ID>  (166) 
CHEMBL3886151

>  <Source Description>  (166) 
BindingDB Database

>  <Document Journal>  (166) 
nan

>  <Document Year>  (166) 
2014.0

>  <Active>  (166) 
1.0

>  <bits>  (166) 
<rdkit.DataStructs.cDataStructs.ExplicitBitVect object at 0x00000159F60346D0>

>  <Group>  (166) 
G2

$$$$

     RDKit          2D

 36 39  0  0  0  0  0  0  0  0999 V2000
   -2.1766   -4.6157    0.0000 C   0  0  0  0  0  0  0  0  0  0  0  0
   -2.6401   -3.1891    0.0000 C   0  0  0  0  0  0  0  0  0  0  0  0
   -3.1036   -1.7626    0.0000 C   0  0  0  0  0  0  0  0  0  0  0  0
   -4.0667   -3.6527    0.0000 C   0  0  0  0  0  0  0  0  0  0  0  0
   -5.1814   -2.6490    0.0000 O   0  0  0  0  0  0  0  0  0  0  0  0
   -1.2135   -2.7256    0.0000 N   0  0  0  0  0  0  0  0  0  0  0  0
   -0.0000   -3.6073    0.0000 C   0  0  0  0  0  0  0  0  0  0  0  0
    1.2135   -2.7256    0.0000 C   0  0  0  0  0  0  0  0  0  0  0  0
    2.6401   -3.1891    0.0000 C   0  0  0  0  0  0  0  0  0  0  0  0
    3.7548   -2.1855    0.0000 O   0  0  0  0  0  0  0  0  0  0  0  0
    2.9520   -4.6564    0.0000 C   0  0  0  0  0  0  0  0  0  0  0  0
    1.8373   -5.6601    0.0000 C   0  0  0  0  0  0  0  0  0  0  0  0
    2.1491   -7.1273    0.0000 N   0  0  0  0  0  0  0  0  0  0  0  0
    3.5757   -7.5908    0.0000 C   0  0  0  0  0  0  0  0  0  0  0  0
    4.6904   -6.5871    0.0000 C   0  0  0  0  0  0  0  0  0  0  0  0
    6.1170   -7.0506    0.0000 N   0  0  0  0  0  0  0  0  0  0  0  0
    6.4289   -8.5179    0.0000 C   0  0  0  0  0  0  0  0  0  0  0  0
    5.3142   -9.5216    0.0000 O   0  0  0  0  0  0  0  0  0  0  0  0
    7.8555   -8.9814    0.0000 C   0  0  0  0  0  0  0  0  0  0  0  0
    8.1673  -10.4486    0.0000 N   0  0  0  0  0  0  0  0  0  0  0  0
    9.5377  -11.0587    0.0000 C   0  0  0  0  0  0  0  0  0  0  0  0
    9.3809  -12.5505    0.0000 C   0  0  0  0  0  0  0  0  0  0  0  0
   10.4956  -13.5542    0.0000 C   0  0  0  0  0  0  0  0  0  0  0  0
   11.6103  -14.5579    0.0000 F   0  0  0  0  0  0  0  0  0  0  0  0
    9.4919  -14.6689    0.0000 F   0  0  0  0  0  0  0  0  0  0  0  0
   11.4993  -12.4395    0.0000 F   0  0  0  0  0  0  0  0  0  0  0  0
    7.9136  -12.8624    0.0000 C   0  0  0  0  0  0  0  0  0  0  0  0
    7.1636  -11.5633    0.0000 N   0  0  0  0  0  0  0  0  0  0  0  0
    4.3786   -5.1199    0.0000 C   0  0  0  0  0  0  0  0  0  0  0  0
    0.7500   -1.2990    0.0000 C   0  0  0  0  0  0  0  0  0  0  0  0
    1.5000    0.0000    0.0000 C   0  0  0  0  0  0  0  0  0  0  0  0
    0.7500    1.2990    0.0000 N   0  0  0  0  0  0  0  0  0  0  0  0
   -0.7500    1.2990    0.0000 C   0  0  0  0  0  0  0  0  0  0  0  0
   -1.5000    0.0000    0.0000 C   0  0  0  0  0  0  0  0  0  0  0  0
   -3.0000    0.0000    0.0000 F   0  0  0  0  0  0  0  0  0  0  0  0
   -0.7500   -1.2990    0.0000 C   0  0  0  0  0  0  0  0  0  0  0  0
  1  2  1  0
  2  3  1  0
  2  4  1  0
  4  5  1  0
  2  6  1  0
  6  7  1  0
  7  8  2  0
  8  9  1  0
  9 10  2  0
  9 11  1  0
 11 12  2  0
 12 13  1  0
 13 14  2  0
 14 15  1  0
 15 16  1  0
 16 17  1  0
 17 18  2  0
 17 19  1  0
 19 20  1  0
 20 21  1  0
 21 22  2  0
 22 23  1  0
 23 24  1  0
 23 25  1  0
 23 26  1  0
 22 27  1  0
 27 28  2  0
 15 29  2  0
  8 30  1  0
 30 31  2  0
 31 32  1  0
 32 33  2  0
 33 34  1  0
 34 35  1  0
 34 36  2  0
 36  6  1  0
 29 11  1  0
 36 30  1  0
 28 20  1  0
M  END
>  <Compound_ID>  (167) 
CHEMBL3912700

>  <Molecule Name>  (167) 
nan

>  <Molecular Weight>  (167) 
504.44

>  <AlogP>  (167) 
3.38

>  <Smiles>  (167) 
CC(C)(CO)n1cc(C(=O)c2cncc(NC(=O)Cn3cc(C(F)(F)F)cn3)c2)c2cncc(F)c21

>  <Standard Type>  (167) 
IC50

>  <Standard Relation>  (167) 
'='

>  <Standard Units>  (167) 
nM

>  <Standard Value>  (167) 
5.33

>  <Assay ChEMBL ID>  (167) 
CHEMBL3887111

>  <Assay Description>  (167) 
HTRF Assay: Isolated TRK Enzyme assays use the HTRF KinEASE-TK kit (Cisbio Cat#62TK0PEJ) with recombinant His-tagged cytoplasmic domains of each TRK receptor sourced from Invitrogen (see table below). This activity-assay measures the phosphorylation of tyrosine residues within a substrate from the HTRF kit which has been validated by Cisbio for a variety of tyrosine kinases including the TRK receptors.Assay Details: Invitrogen Amino FAC FAC Assay ReactionTarget Cat# acids enzyme ATP TimeTRKA PV3144 aa 441-4 nM 40 uM 35 min (NTRK1) 796 TRKB PV3616 aa 526-1 nM 1.4 uM 40 min (NTRK2) 838 TRKC PV3617 aa 510- 10 nM 15 uM 30 min (NTRK3) 8250.5 mM stock solutions of test compounds are prepared and serially diluted in 100% DMSO. A standard curve using the compound of Example 135 disclosed in WO2005/116035 of 150 uM is also prepared on each test plate. High percentage effect (HPE) is defined by 150 uM.

>  <BAO Format ID>  (167) 
BAO_0000357

>  <BAO Label>  (167) 
single protein format

>  <Assay Organism>  (167) 
None

>  <Target ChEMBL ID>  (167) 
CHEMBL2815

>  <Target Name>  (167) 
Nerve growth factor receptor Trk-A

>  <Target Organism>  (167) 
Homo sapiens

>  <Target Type>  (167) 
SINGLE PROTEIN

>  <Document ChEMBL ID>  (167) 
CHEMBL3886170

>  <Source Description>  (167) 
BindingDB Database

>  <Document Journal>  (167) 
nan

>  <Document Year>  (167) 
2015.0

>  <Active>  (167) 
1.0

>  <bits>  (167) 
<rdkit.DataStructs.cDataStructs.ExplicitBitVect object at 0x00000159F6037ED0>

>  <Group>  (167) 
G2

$$$$

     RDKit          2D

 33 37  0  0  0  0  0  0  0  0999 V2000
   -8.7155   -7.6032    0.0000 C   0  0  0  0  0  0  0  0  0  0  0  0
   -7.2238   -7.7600    0.0000 C   0  0  0  0  0  0  0  0  0  0  0  0
   -6.3421   -6.5465    0.0000 C   0  0  0  0  0  0  0  0  0  0  0  0
   -4.8421   -6.5465    0.0000 C   0  0  0  0  0  0  0  0  0  0  0  0
   -4.3786   -5.1199    0.0000 C   0  0  0  0  0  0  0  0  0  0  0  0
   -2.9520   -4.6564    0.0000 N   0  0  0  0  0  0  0  0  0  0  0  0
   -2.6401   -3.1891    0.0000 C   0  0  0  0  0  0  0  0  0  0  0  0
   -3.7548   -2.1855    0.0000 O   0  0  0  0  0  0  0  0  0  0  0  0
   -1.2135   -2.7256    0.0000 C   0  0  0  0  0  0  0  0  0  0  0  0
   -0.0000   -3.6073    0.0000 C   0  0  0  0  0  0  0  0  0  0  0  0
    1.2135   -2.7256    0.0000 N   0  0  0  0  0  0  0  0  0  0  0  0
    0.7500   -1.2990    0.0000 N   0  0  0  0  0  0  0  0  0  0  0  0
    1.5000    0.0000    0.0000 C   0  0  0  0  0  0  0  0  0  0  0  0
    0.7500    1.2990    0.0000 C   0  0  0  0  0  0  0  0  0  0  0  0
   -0.7500    1.2990    0.0000 C   0  0  0  0  0  0  0  0  0  0  0  0
   -1.5000    2.5981    0.0000 N   0  0  0  0  0  0  0  0  0  0  0  0
   -2.9918    2.7549    0.0000 C   0  0  0  0  0  0  0  0  0  0  0  0
   -3.3037    4.2221    0.0000 C   0  0  0  0  0  0  0  0  0  0  0  0
   -2.0046    4.9721    0.0000 C   0  0  0  0  0  0  0  0  0  0  0  0
   -0.8899    3.9684    0.0000 C   0  0  0  0  0  0  0  0  0  0  0  0
    0.5773    4.2803    0.0000 C   0  0  0  0  0  0  0  0  0  0  0  0
    1.5810    3.1655    0.0000 C   0  0  0  0  0  0  0  0  0  0  0  0
    3.0482    3.4774    0.0000 C   0  0  0  0  0  0  0  0  0  0  0  0
    4.0519    2.3627    0.0000 F   0  0  0  0  0  0  0  0  0  0  0  0
    3.5118    4.9040    0.0000 C   0  0  0  0  0  0  0  0  0  0  0  0
    2.5081    6.0187    0.0000 N   0  0  0  0  0  0  0  0  0  0  0  0
    1.0409    5.7068    0.0000 C   0  0  0  0  0  0  0  0  0  0  0  0
    0.0372    6.8216    0.0000 O   0  0  0  0  0  0  0  0  0  0  0  0
    0.5007    8.2481    0.0000 C   0  0  0  0  0  0  0  0  0  0  0  0
   -1.5000    0.0000    0.0000 N   0  0  0  0  0  0  0  0  0  0  0  0
   -0.7500   -1.2990    0.0000 C   0  0  0  0  0  0  0  0  0  0  0  0
   -5.5921   -4.2382    0.0000 N   0  0  0  0  0  0  0  0  0  0  0  0
   -6.8056   -5.1199    0.0000 N   0  0  0  0  0  0  0  0  0  0  0  0
  1  2  1  0
  2  3  1  0
  3  4  1  0
  4  5  2  0
  5  6  1  0
  6  7  1  0
  7  8  2  0
  7  9  1  0
  9 10  1  0
 10 11  2  0
 11 12  1  0
 12 13  1  0
 13 14  2  0
 14 15  1  0
 15 16  1  0
 16 17  1  0
 17 18  1  0
 18 19  1  0
 19 20  1  0
 20 21  1  0
 21 22  2  0
 22 23  1  0
 23 24  1  0
 23 25  2  0
 25 26  1  0
 26 27  2  0
 27 28  1  0
 28 29  1  0
 15 30  2  0
 30 31  1  0
  5 32  1  0
 32 33  1  0
 33  3  2  0
 31  9  2  0
 31 12  1  0
 20 16  1  0
 27 21  1  0
M  END
>  <Compound_ID>  (168) 
CHEMBL3676105

>  <Molecule Name>  (168) 
nan

>  <Molecular Weight>  (168) 
450.48

>  <AlogP>  (168) 
3.15

>  <Smiles>  (168) 
CCc1cc(NC(=O)c2cnn3ccc(N4CCCC4c4cc(F)cnc4OC)nc23)[nH]n1

>  <Standard Type>  (168) 
IC50

>  <Standard Relation>  (168) 
'='

>  <Standard Units>  (168) 
nM

>  <Standard Value>  (168) 
9.0

>  <Assay ChEMBL ID>  (168) 
CHEMBL3887070

>  <Assay Description>  (168) 
ELISA Assay: An enzyme-linked immunosorbant assay (ELISA) was used to assess TrkA kinase activity in the presence of inhibitors. Immulon 4HBX 384-well microtiter plates (Thermo part #8755) were coated with a 0.025 mg/mL solution of poly (Glu, Ala, Tyr; 6:3:1; Sigma P3899). Various concentrations of test compound, 2.5 nM TrkA (Invitrogen Corp., histidine-tagged recombinant human TrkA, cytoplasmic domain), and 500 uM ATP were incubated for 25 minutes at ambient temperature in the coated plates while shaking The assay buffer consisted of 25 mM MOPS pH 7.5, 0.005% (v/v) Triton X-100 and 5 mM MgCl2. The reaction mixture was removed from the plate by washing with PBS containing 0.1% (v/v) Tween 20. The phosphorylated reaction product was detected using 0.2 ug/mL of a phosphotyrosine specific monoclonal antibody (clone PY20) conjugated to horseradish peroxidase in conjunction with the TMB Peroxidase Substrate System (KPL).

>  <BAO Format ID>  (168) 
BAO_0000357

>  <BAO Label>  (168) 
single protein format

>  <Assay Organism>  (168) 
None

>  <Target ChEMBL ID>  (168) 
CHEMBL2815

>  <Target Name>  (168) 
Nerve growth factor receptor Trk-A

>  <Target Organism>  (168) 
Homo sapiens

>  <Target Type>  (168) 
SINGLE PROTEIN

>  <Document ChEMBL ID>  (168) 
CHEMBL3638907

>  <Source Description>  (168) 
BindingDB Database

>  <Document Journal>  (168) 
nan

>  <Document Year>  (168) 
2014.0

>  <Active>  (168) 
1.0

>  <bits>  (168) 
<rdkit.DataStructs.cDataStructs.ExplicitBitVect object at 0x00000159F6037220>

>  <Group>  (168) 
G2

$$$$

     RDKit          2D

 32 35  0  0  0  0  0  0  0  0999 V2000
   -6.1577   -6.2752    0.0000 C   0  0  0  0  0  0  0  0  0  0  0  0
   -4.6904   -6.5871    0.0000 C   0  0  0  0  0  0  0  0  0  0  0  0
   -3.2232   -6.8990    0.0000 C   0  0  0  0  0  0  0  0  0  0  0  0
   -5.0023   -8.0543    0.0000 C   0  0  0  0  0  0  0  0  0  0  0  0
   -4.3786   -5.1199    0.0000 C   0  0  0  0  0  0  0  0  0  0  0  0
   -5.4933   -4.1162    0.0000 C   0  0  0  0  0  0  0  0  0  0  0  0
   -6.9199   -4.5797    0.0000 O   0  0  0  0  0  0  0  0  0  0  0  0
   -2.9520   -4.6564    0.0000 N   0  0  0  0  0  0  0  0  0  0  0  0
   -2.6401   -3.1891    0.0000 C   0  0  0  0  0  0  0  0  0  0  0  0
   -3.7548   -2.1855    0.0000 O   0  0  0  0  0  0  0  0  0  0  0  0
   -1.2135   -2.7256    0.0000 C   0  0  0  0  0  0  0  0  0  0  0  0
   -0.0000   -3.6073    0.0000 C   0  0  0  0  0  0  0  0  0  0  0  0
    1.2135   -2.7256    0.0000 N   0  0  0  0  0  0  0  0  0  0  0  0
    0.7500   -1.2990    0.0000 N   0  0  0  0  0  0  0  0  0  0  0  0
    1.5000    0.0000    0.0000 C   0  0  0  0  0  0  0  0  0  0  0  0
    0.7500    1.2990    0.0000 C   0  0  0  0  0  0  0  0  0  0  0  0
   -0.7500    1.2990    0.0000 C   0  0  0  0  0  0  0  0  0  0  0  0
   -1.5000    2.5981    0.0000 N   0  0  0  0  0  0  0  0  0  0  0  0
   -2.9918    2.7549    0.0000 C   0  0  0  0  0  0  0  0  0  0  0  0
   -3.3037    4.2221    0.0000 C   0  0  0  0  0  0  0  0  0  0  0  0
   -2.0046    4.9721    0.0000 C   0  0  0  0  0  0  0  0  0  0  0  0
   -0.8899    3.9684    0.0000 C   0  0  0  0  0  0  0  0  0  0  0  0
    0.5773    4.2803    0.0000 C   0  0  0  0  0  0  0  0  0  0  0  0
    1.5810    3.1655    0.0000 C   0  0  0  0  0  0  0  0  0  0  0  0
    3.0482    3.4774    0.0000 C   0  0  0  0  0  0  0  0  0  0  0  0
    4.0519    2.3627    0.0000 F   0  0  0  0  0  0  0  0  0  0  0  0
    3.5118    4.9040    0.0000 C   0  0  0  0  0  0  0  0  0  0  0  0
    2.5081    6.0187    0.0000 C   0  0  0  0  0  0  0  0  0  0  0  0
    1.0409    5.7068    0.0000 C   0  0  0  0  0  0  0  0  0  0  0  0
    0.0372    6.8216    0.0000 F   0  0  0  0  0  0  0  0  0  0  0  0
   -1.5000    0.0000    0.0000 N   0  0  0  0  0  0  0  0  0  0  0  0
   -0.7500   -1.2990    0.0000 C   0  0  0  0  0  0  0  0  0  0  0  0
  1  2  1  0
  2  3  1  0
  2  4  1  0
  2  5  1  0
  5  6  1  1
  6  7  1  0
  5  8  1  0
  8  9  1  0
  9 10  2  0
  9 11  1  0
 11 12  1  0
 12 13  2  0
 13 14  1  0
 14 15  1  0
 15 16  2  0
 16 17  1  0
 17 18  1  0
 18 19  1  0
 19 20  1  0
 20 21  1  0
 21 22  1  0
 22 23  1  6
 23 24  2  0
 24 25  1  0
 25 26  1  0
 25 27  2  0
 27 28  1  0
 28 29  2  0
 29 30  1  0
 17 31  2  0
 31 32  1  0
 32 11  2  0
 32 14  1  0
 22 18  1  0
 29 23  1  0
M  END
>  <Compound_ID>  (169) 
CHEMBL3676048

>  <Molecule Name>  (169) 
nan

>  <Molecular Weight>  (169) 
443.5

>  <AlogP>  (169) 
3.49

>  <Smiles>  (169) 
CC(C)(C)[C@@H](CO)NC(=O)c1cnn2ccc(N3CCC[C@@H]3c3cc(F)ccc3F)nc12

>  <Standard Type>  (169) 
IC50

>  <Standard Relation>  (169) 
'='

>  <Standard Units>  (169) 
nM

>  <Standard Value>  (169) 
12.3

>  <Assay ChEMBL ID>  (169) 
CHEMBL3887070

>  <Assay Description>  (169) 
ELISA Assay: An enzyme-linked immunosorbant assay (ELISA) was used to assess TrkA kinase activity in the presence of inhibitors. Immulon 4HBX 384-well microtiter plates (Thermo part #8755) were coated with a 0.025 mg/mL solution of poly (Glu, Ala, Tyr; 6:3:1; Sigma P3899). Various concentrations of test compound, 2.5 nM TrkA (Invitrogen Corp., histidine-tagged recombinant human TrkA, cytoplasmic domain), and 500 uM ATP were incubated for 25 minutes at ambient temperature in the coated plates while shaking The assay buffer consisted of 25 mM MOPS pH 7.5, 0.005% (v/v) Triton X-100 and 5 mM MgCl2. The reaction mixture was removed from the plate by washing with PBS containing 0.1% (v/v) Tween 20. The phosphorylated reaction product was detected using 0.2 ug/mL of a phosphotyrosine specific monoclonal antibody (clone PY20) conjugated to horseradish peroxidase in conjunction with the TMB Peroxidase Substrate System (KPL).

>  <BAO Format ID>  (169) 
BAO_0000357

>  <BAO Label>  (169) 
single protein format

>  <Assay Organism>  (169) 
None

>  <Target ChEMBL ID>  (169) 
CHEMBL2815

>  <Target Name>  (169) 
Nerve growth factor receptor Trk-A

>  <Target Organism>  (169) 
Homo sapiens

>  <Target Type>  (169) 
SINGLE PROTEIN

>  <Document ChEMBL ID>  (169) 
CHEMBL3638907

>  <Source Description>  (169) 
BindingDB Database

>  <Document Journal>  (169) 
nan

>  <Document Year>  (169) 
2014.0

>  <Active>  (169) 
1.0

>  <bits>  (169) 
<rdkit.DataStructs.cDataStructs.ExplicitBitVect object at 0x00000159F6035F50>

>  <Group>  (169) 
G2

$$$$

     RDKit          2D

 28 31  0  0  0  0  0  0  0  0999 V2000
    5.9262   -3.3786    0.0000 C   0  0  0  0  0  0  0  0  0  0  0  0
    5.4627   -1.9520    0.0000 C   0  0  0  0  0  0  0  0  0  0  0  0
    6.4664   -0.8373    0.0000 N   0  0  0  0  0  0  0  0  0  0  0  0
    6.0029    0.5893    0.0000 C   0  0  0  0  0  0  0  0  0  0  0  0
    4.5356    0.9012    0.0000 C   0  0  0  0  0  0  0  0  0  0  0  0
    4.0721    2.3277    0.0000 F   0  0  0  0  0  0  0  0  0  0  0  0
    3.5320   -0.2136    0.0000 C   0  0  0  0  0  0  0  0  0  0  0  0
    3.9955   -1.6402    0.0000 C   0  0  0  0  0  0  0  0  0  0  0  0
    2.9918   -2.7549    0.0000 C   0  0  0  0  0  0  0  0  0  0  0  0
    3.3037   -4.2221    0.0000 C   0  0  0  0  0  0  0  0  0  0  0  0
    2.0046   -4.9721    0.0000 C   0  0  0  0  0  0  0  0  0  0  0  0
    0.8899   -3.9684    0.0000 C   0  0  0  0  0  0  0  0  0  0  0  0
    1.5000   -2.5981    0.0000 N   0  0  0  0  0  0  0  0  0  0  0  0
    0.7500   -1.2990    0.0000 C   0  0  0  0  0  0  0  0  0  0  0  0
    1.5000    0.0000    0.0000 C   0  0  0  0  0  0  0  0  0  0  0  0
    0.7500    1.2990    0.0000 C   0  0  0  0  0  0  0  0  0  0  0  0
   -0.7500    1.2990    0.0000 N   0  0  0  0  0  0  0  0  0  0  0  0
   -1.7537    2.4138    0.0000 N   0  0  0  0  0  0  0  0  0  0  0  0
   -3.1240    1.8037    0.0000 C   0  0  0  0  0  0  0  0  0  0  0  0
   -2.9672    0.3119    0.0000 C   0  0  0  0  0  0  0  0  0  0  0  0
   -4.0819   -0.6918    0.0000 C   0  0  0  0  0  0  0  0  0  0  0  0
   -3.7701   -2.1590    0.0000 O   0  0  0  0  0  0  0  0  0  0  0  0
   -5.5085   -0.2283    0.0000 N   0  0  0  0  0  0  0  0  0  0  0  0
   -6.6232   -1.2320    0.0000 C   0  0  0  0  0  0  0  0  0  0  0  0
   -8.0498   -0.7685    0.0000 C   0  0  0  0  0  0  0  0  0  0  0  0
   -6.3114   -2.6992    0.0000 C   0  0  0  0  0  0  0  0  0  0  0  0
   -1.5000    0.0000    0.0000 C   0  0  0  0  0  0  0  0  0  0  0  0
   -0.7500   -1.2990    0.0000 N   0  0  0  0  0  0  0  0  0  0  0  0
  1  2  1  0
  2  3  2  0
  3  4  1  0
  4  5  2  0
  5  6  1  0
  5  7  1  0
  7  8  2  0
  9  8  1  1
  9 10  1  0
 10 11  1  0
 11 12  1  0
 12 13  1  0
 13 14  1  0
 14 15  1  0
 15 16  2  0
 16 17  1  0
 17 18  1  0
 18 19  2  0
 19 20  1  0
 20 21  1  0
 21 22  2  0
 21 23  1  0
 23 24  1  0
 24 25  1  0
 24 26  1  0
 20 27  2  0
 27 28  1  0
  8  2  1  0
 13  9  1  0
 28 14  2  0
 27 17  1  0
M  END
>  <Compound_ID>  (170) 
CHEMBL3676052

>  <Molecule Name>  (170) 
nan

>  <Molecular Weight>  (170) 
382.44

>  <AlogP>  (170) 
3.05

>  <Smiles>  (170) 
Cc1ncc(F)cc1[C@H]1CCCN1c1ccn2ncc(C(=O)NC(C)C)c2n1

>  <Standard Type>  (170) 
IC50

>  <Standard Relation>  (170) 
'='

>  <Standard Units>  (170) 
nM

>  <Standard Value>  (170) 
7.4

>  <Assay ChEMBL ID>  (170) 
CHEMBL3887070

>  <Assay Description>  (170) 
ELISA Assay: An enzyme-linked immunosorbant assay (ELISA) was used to assess TrkA kinase activity in the presence of inhibitors. Immulon 4HBX 384-well microtiter plates (Thermo part #8755) were coated with a 0.025 mg/mL solution of poly (Glu, Ala, Tyr; 6:3:1; Sigma P3899). Various concentrations of test compound, 2.5 nM TrkA (Invitrogen Corp., histidine-tagged recombinant human TrkA, cytoplasmic domain), and 500 uM ATP were incubated for 25 minutes at ambient temperature in the coated plates while shaking The assay buffer consisted of 25 mM MOPS pH 7.5, 0.005% (v/v) Triton X-100 and 5 mM MgCl2. The reaction mixture was removed from the plate by washing with PBS containing 0.1% (v/v) Tween 20. The phosphorylated reaction product was detected using 0.2 ug/mL of a phosphotyrosine specific monoclonal antibody (clone PY20) conjugated to horseradish peroxidase in conjunction with the TMB Peroxidase Substrate System (KPL).

>  <BAO Format ID>  (170) 
BAO_0000357

>  <BAO Label>  (170) 
single protein format

>  <Assay Organism>  (170) 
None

>  <Target ChEMBL ID>  (170) 
CHEMBL2815

>  <Target Name>  (170) 
Nerve growth factor receptor Trk-A

>  <Target Organism>  (170) 
Homo sapiens

>  <Target Type>  (170) 
SINGLE PROTEIN

>  <Document ChEMBL ID>  (170) 
CHEMBL3638907

>  <Source Description>  (170) 
BindingDB Database

>  <Document Journal>  (170) 
nan

>  <Document Year>  (170) 
2014.0

>  <Active>  (170) 
1.0

>  <bits>  (170) 
<rdkit.DataStructs.cDataStructs.ExplicitBitVect object at 0x00000159F6036C70>

>  <Group>  (170) 
G2

$$$$

     RDKit          2D

 29 32  0  0  0  0  0  0  0  0999 V2000
   -6.1170   -7.0506    0.0000 C   0  0  0  0  0  0  0  0  0  0  0  0
   -4.6904   -6.5871    0.0000 O   0  0  0  0  0  0  0  0  0  0  0  0
   -4.3786   -5.1199    0.0000 C   0  0  0  0  0  0  0  0  0  0  0  0
   -5.4933   -4.1162    0.0000 O   0  0  0  0  0  0  0  0  0  0  0  0
   -2.9520   -4.6564    0.0000 C   0  0  0  0  0  0  0  0  0  0  0  0
   -1.8373   -5.6601    0.0000 O   0  0  0  0  0  0  0  0  0  0  0  0
   -2.6401   -3.1891    0.0000 N   0  0  0  0  0  0  0  0  0  0  0  0
   -1.2135   -2.7256    0.0000 C   0  0  0  0  0  0  0  0  0  0  0  0
   -0.0000   -3.6073    0.0000 C   0  0  0  0  0  0  0  0  0  0  0  0
    1.2135   -2.7256    0.0000 N   0  0  0  0  0  0  0  0  0  0  0  0
    0.7500   -1.2990    0.0000 N   0  0  0  0  0  0  0  0  0  0  0  0
    1.5000    0.0000    0.0000 C   0  0  0  0  0  0  0  0  0  0  0  0
    0.7500    1.2990    0.0000 C   0  0  0  0  0  0  0  0  0  0  0  0
   -0.7500    1.2990    0.0000 C   0  0  0  0  0  0  0  0  0  0  0  0
   -1.5000    2.5981    0.0000 N   0  0  0  0  0  0  0  0  0  0  0  0
   -2.9918    2.7549    0.0000 C   0  0  0  0  0  0  0  0  0  0  0  0
   -3.3037    4.2221    0.0000 C   0  0  0  0  0  0  0  0  0  0  0  0
   -2.0046    4.9721    0.0000 C   0  0  0  0  0  0  0  0  0  0  0  0
   -0.8899    3.9684    0.0000 C   0  0  0  0  0  0  0  0  0  0  0  0
    0.5773    4.2803    0.0000 C   0  0  0  0  0  0  0  0  0  0  0  0
    1.5810    3.1655    0.0000 C   0  0  0  0  0  0  0  0  0  0  0  0
    3.0482    3.4774    0.0000 C   0  0  0  0  0  0  0  0  0  0  0  0
    4.0519    2.3627    0.0000 F   0  0  0  0  0  0  0  0  0  0  0  0
    3.5118    4.9040    0.0000 C   0  0  0  0  0  0  0  0  0  0  0  0
    2.5081    6.0187    0.0000 C   0  0  0  0  0  0  0  0  0  0  0  0
    1.0409    5.7068    0.0000 C   0  0  0  0  0  0  0  0  0  0  0  0
    0.0372    6.8216    0.0000 F   0  0  0  0  0  0  0  0  0  0  0  0
   -1.5000    0.0000    0.0000 N   0  0  0  0  0  0  0  0  0  0  0  0
   -0.7500   -1.2990    0.0000 C   0  0  0  0  0  0  0  0  0  0  0  0
  1  2  1  0
  2  3  1  0
  3  4  2  0
  3  5  1  0
  5  6  2  0
  5  7  1  0
  7  8  1  0
  8  9  1  0
  9 10  2  0
 10 11  1  0
 11 12  1  0
 12 13  2  0
 13 14  1  0
 14 15  1  0
 15 16  1  0
 16 17  1  0
 17 18  1  0
 18 19  1  0
 19 20  1  6
 20 21  2  0
 21 22  1  0
 22 23  1  0
 22 24  2  0
 24 25  1  0
 25 26  2  0
 26 27  1  0
 14 28  2  0
 28 29  1  0
 29  8  2  0
 29 11  1  0
 19 15  1  0
 26 20  1  0
M  END
>  <Compound_ID>  (171) 
CHEMBL4112494

>  <Molecule Name>  (171) 
nan

>  <Molecular Weight>  (171) 
401.37

>  <AlogP>  (171) 
2.46

>  <Smiles>  (171) 
COC(=O)C(=O)Nc1cnn2ccc(N3CCC[C@@H]3c3cc(F)ccc3F)nc12

>  <Standard Type>  (171) 
IC50

>  <Standard Relation>  (171) 
'='

>  <Standard Units>  (171) 
nM

>  <Standard Value>  (171) 
7.65

>  <Assay ChEMBL ID>  (171) 
CHEMBL3887076

>  <Assay Description>  (171) 
ELISA Assay: An enzyme-linked immunosorbant assay (ELISA) was used to assess TrkA kinase activity in the presence of inhibitors. Immulon 4HBX 384-well microtiter plates (Thermo part #8755) were coated with a 0.025 mg/mL solution of poly (Glu, Ala, Tyr; 6:3:1; Sigma P3899). Various concentrations of test compound, 2.5 nM TrkA (Invitrogen Corp., histidine-tagged recombinant human TrkA, cytoplasmic domain), and 500 uM ATP were incubated for 25 minutes at ambient temperature in the coated plates while shaking. The assay buffer consisted of 25 mM MOPS pH 7.5, 0.005% (v/v) Triton X-100 and 5 mM MgCl2. The reaction mixture was removed from the plate by washing with PBS containing 0.1% (v/v) Tween 20. The phosphorylated reaction product was detected using 0.2 ug/mL of a phosphotyrosine specific monoclonal antibody (clone PY20) conjugated to horseradish peroxidase in conjunction with the TMB Peroxidase Substrate System (KPL).

>  <BAO Format ID>  (171) 
BAO_0000357

>  <BAO Label>  (171) 
single protein format

>  <Assay Organism>  (171) 
None

>  <Target ChEMBL ID>  (171) 
CHEMBL2815

>  <Target Name>  (171) 
Nerve growth factor receptor Trk-A

>  <Target Organism>  (171) 
Homo sapiens

>  <Target Type>  (171) 
SINGLE PROTEIN

>  <Document ChEMBL ID>  (171) 
CHEMBL3886151

>  <Source Description>  (171) 
BindingDB Database

>  <Document Journal>  (171) 
nan

>  <Document Year>  (171) 
2014.0

>  <Active>  (171) 
1.0

>  <bits>  (171) 
<rdkit.DataStructs.cDataStructs.ExplicitBitVect object at 0x00000159F6036B90>

>  <Group>  (171) 
G2

$$$$

     RDKit          2D

 30 33  0  0  0  0  0  0  0  0999 V2000
   -6.1577   -6.2752    0.0000 C   0  0  0  0  0  0  0  0  0  0  0  0
   -4.6904   -6.5871    0.0000 C   0  0  0  0  0  0  0  0  0  0  0  0
   -3.2232   -6.8990    0.0000 C   0  0  0  0  0  0  0  0  0  0  0  0
   -5.0023   -8.0543    0.0000 C   0  0  0  0  0  0  0  0  0  0  0  0
   -4.3786   -5.1199    0.0000 N   0  0  0  0  0  0  0  0  0  0  0  0
   -2.9520   -4.6564    0.0000 C   0  0  0  0  0  0  0  0  0  0  0  0
   -1.8373   -5.6601    0.0000 O   0  0  0  0  0  0  0  0  0  0  0  0
   -2.6401   -3.1891    0.0000 N   0  0  0  0  0  0  0  0  0  0  0  0
   -1.2135   -2.7256    0.0000 C   0  0  0  0  0  0  0  0  0  0  0  0
   -0.0000   -3.6073    0.0000 C   0  0  0  0  0  0  0  0  0  0  0  0
    1.2135   -2.7256    0.0000 N   0  0  0  0  0  0  0  0  0  0  0  0
    0.7500   -1.2990    0.0000 N   0  0  0  0  0  0  0  0  0  0  0  0
    1.5000    0.0000    0.0000 C   0  0  0  0  0  0  0  0  0  0  0  0
    0.7500    1.2990    0.0000 C   0  0  0  0  0  0  0  0  0  0  0  0
   -0.7500    1.2990    0.0000 C   0  0  0  0  0  0  0  0  0  0  0  0
   -1.5000    2.5981    0.0000 N   0  0  0  0  0  0  0  0  0  0  0  0
   -2.9918    2.7549    0.0000 C   0  0  0  0  0  0  0  0  0  0  0  0
   -3.3037    4.2221    0.0000 C   0  0  0  0  0  0  0  0  0  0  0  0
   -2.0046    4.9721    0.0000 C   0  0  0  0  0  0  0  0  0  0  0  0
   -0.8899    3.9684    0.0000 C   0  0  0  0  0  0  0  0  0  0  0  0
    0.5773    4.2803    0.0000 C   0  0  0  0  0  0  0  0  0  0  0  0
    1.5810    3.1655    0.0000 C   0  0  0  0  0  0  0  0  0  0  0  0
    3.0482    3.4774    0.0000 C   0  0  0  0  0  0  0  0  0  0  0  0
    4.0519    2.3627    0.0000 F   0  0  0  0  0  0  0  0  0  0  0  0
    3.5118    4.9040    0.0000 C   0  0  0  0  0  0  0  0  0  0  0  0
    2.5081    6.0187    0.0000 C   0  0  0  0  0  0  0  0  0  0  0  0
    1.0409    5.7068    0.0000 C   0  0  0  0  0  0  0  0  0  0  0  0
    0.0372    6.8216    0.0000 F   0  0  0  0  0  0  0  0  0  0  0  0
   -1.5000    0.0000    0.0000 N   0  0  0  0  0  0  0  0  0  0  0  0
   -0.7500   -1.2990    0.0000 C   0  0  0  0  0  0  0  0  0  0  0  0
  1  2  1  0
  2  3  1  0
  2  4  1  0
  2  5  1  0
  5  6  1  0
  6  7  2  0
  6  8  1  0
  8  9  1  0
  9 10  1  0
 10 11  2  0
 11 12  1  0
 12 13  1  0
 13 14  2  0
 14 15  1  0
 15 16  1  0
 16 17  1  0
 17 18  1  0
 18 19  1  0
 19 20  1  0
 20 21  1  6
 21 22  2  0
 22 23  1  0
 23 24  1  0
 23 25  2  0
 25 26  1  0
 26 27  2  0
 27 28  1  0
 15 29  2  0
 29 30  1  0
 30  9  2  0
 30 12  1  0
 20 16  1  0
 27 21  1  0
M  END
>  <Compound_ID>  (172) 
CHEMBL4113828

>  <Molecule Name>  (172) 
nan

>  <Molecular Weight>  (172) 
414.46

>  <AlogP>  (172) 
4.27

>  <Smiles>  (172) 
CC(C)(C)NC(=O)Nc1cnn2ccc(N3CCC[C@@H]3c3cc(F)ccc3F)nc12

>  <Standard Type>  (172) 
IC50

>  <Standard Relation>  (172) 
'='

>  <Standard Units>  (172) 
nM

>  <Standard Value>  (172) 
22.2

>  <Assay ChEMBL ID>  (172) 
CHEMBL3887076

>  <Assay Description>  (172) 
ELISA Assay: An enzyme-linked immunosorbant assay (ELISA) was used to assess TrkA kinase activity in the presence of inhibitors. Immulon 4HBX 384-well microtiter plates (Thermo part #8755) were coated with a 0.025 mg/mL solution of poly (Glu, Ala, Tyr; 6:3:1; Sigma P3899). Various concentrations of test compound, 2.5 nM TrkA (Invitrogen Corp., histidine-tagged recombinant human TrkA, cytoplasmic domain), and 500 uM ATP were incubated for 25 minutes at ambient temperature in the coated plates while shaking. The assay buffer consisted of 25 mM MOPS pH 7.5, 0.005% (v/v) Triton X-100 and 5 mM MgCl2. The reaction mixture was removed from the plate by washing with PBS containing 0.1% (v/v) Tween 20. The phosphorylated reaction product was detected using 0.2 ug/mL of a phosphotyrosine specific monoclonal antibody (clone PY20) conjugated to horseradish peroxidase in conjunction with the TMB Peroxidase Substrate System (KPL).

>  <BAO Format ID>  (172) 
BAO_0000357

>  <BAO Label>  (172) 
single protein format

>  <Assay Organism>  (172) 
None

>  <Target ChEMBL ID>  (172) 
CHEMBL2815

>  <Target Name>  (172) 
Nerve growth factor receptor Trk-A

>  <Target Organism>  (172) 
Homo sapiens

>  <Target Type>  (172) 
SINGLE PROTEIN

>  <Document ChEMBL ID>  (172) 
CHEMBL3886151

>  <Source Description>  (172) 
BindingDB Database

>  <Document Journal>  (172) 
nan

>  <Document Year>  (172) 
2014.0

>  <Active>  (172) 
1.0

>  <bits>  (172) 
<rdkit.DataStructs.cDataStructs.ExplicitBitVect object at 0x00000159F6035A10>

>  <Group>  (172) 
G2

$$$$

     RDKit          2D

 29 32  0  0  0  0  0  0  0  0999 V2000
   -8.0346   -3.5760    0.0000 C   0  0  0  0  0  0  0  0  0  0  0  0
   -6.9199   -4.5797    0.0000 O   0  0  0  0  0  0  0  0  0  0  0  0
   -5.4933   -4.1162    0.0000 C   0  0  0  0  0  0  0  0  0  0  0  0
   -4.3786   -5.1199    0.0000 C   0  0  0  0  0  0  0  0  0  0  0  0
   -4.6904   -6.5871    0.0000 C   0  0  0  0  0  0  0  0  0  0  0  0
   -2.9520   -4.6564    0.0000 N   0  0  0  0  0  0  0  0  0  0  0  0
   -2.6401   -3.1891    0.0000 C   0  0  0  0  0  0  0  0  0  0  0  0
   -3.7548   -2.1855    0.0000 O   0  0  0  0  0  0  0  0  0  0  0  0
   -1.2135   -2.7256    0.0000 C   0  0  0  0  0  0  0  0  0  0  0  0
   -0.0000   -3.6073    0.0000 C   0  0  0  0  0  0  0  0  0  0  0  0
    1.2135   -2.7256    0.0000 N   0  0  0  0  0  0  0  0  0  0  0  0
    0.7500   -1.2990    0.0000 N   0  0  0  0  0  0  0  0  0  0  0  0
    1.5000    0.0000    0.0000 C   0  0  0  0  0  0  0  0  0  0  0  0
    0.7500    1.2990    0.0000 C   0  0  0  0  0  0  0  0  0  0  0  0
   -0.7500    1.2990    0.0000 C   0  0  0  0  0  0  0  0  0  0  0  0
   -1.5000    2.5981    0.0000 N   0  0  0  0  0  0  0  0  0  0  0  0
   -2.9918    2.7549    0.0000 C   0  0  0  0  0  0  0  0  0  0  0  0
   -3.3037    4.2221    0.0000 C   0  0  0  0  0  0  0  0  0  0  0  0
   -2.0046    4.9721    0.0000 C   0  0  0  0  0  0  0  0  0  0  0  0
   -0.8899    3.9684    0.0000 C   0  0  0  0  0  0  0  0  0  0  0  0
    0.5773    4.2803    0.0000 C   0  0  0  0  0  0  0  0  0  0  0  0
    1.5810    3.1655    0.0000 C   0  0  0  0  0  0  0  0  0  0  0  0
    3.0482    3.4774    0.0000 N   0  0  0  0  0  0  0  0  0  0  0  0
    3.5118    4.9040    0.0000 C   0  0  0  0  0  0  0  0  0  0  0  0
    2.5081    6.0187    0.0000 C   0  0  0  0  0  0  0  0  0  0  0  0
    2.9716    7.4453    0.0000 F   0  0  0  0  0  0  0  0  0  0  0  0
    1.0409    5.7068    0.0000 C   0  0  0  0  0  0  0  0  0  0  0  0
   -1.5000    0.0000    0.0000 N   0  0  0  0  0  0  0  0  0  0  0  0
   -0.7500   -1.2990    0.0000 C   0  0  0  0  0  0  0  0  0  0  0  0
  1  2  1  0
  2  3  1  0
  3  4  1  0
  4  5  1  0
  4  6  1  0
  6  7  1  0
  7  8  2  0
  7  9  1  0
  9 10  1  0
 10 11  2  0
 11 12  1  0
 12 13  1  0
 13 14  2  0
 14 15  1  0
 15 16  1  0
 16 17  1  0
 17 18  1  0
 18 19  1  0
 19 20  1  0
 20 21  1  0
 21 22  2  0
 22 23  1  0
 23 24  2  0
 24 25  1  0
 25 26  1  0
 25 27  2  0
 15 28  2  0
 28 29  1  0
 29  9  2  0
 29 12  1  0
 20 16  1  0
 27 21  1  0
M  END
>  <Compound_ID>  (173) 
CHEMBL3675992

>  <Molecule Name>  (173) 
nan

>  <Molecular Weight>  (173) 
398.44

>  <AlogP>  (173) 
2.37

>  <Smiles>  (173) 
COCC(C)NC(=O)c1cnn2ccc(N3CCCC3c3cncc(F)c3)nc12

>  <Standard Type>  (173) 
IC50

>  <Standard Relation>  (173) 
'='

>  <Standard Units>  (173) 
nM

>  <Standard Value>  (173) 
22.5

>  <Assay ChEMBL ID>  (173) 
CHEMBL3887070

>  <Assay Description>  (173) 
ELISA Assay: An enzyme-linked immunosorbant assay (ELISA) was used to assess TrkA kinase activity in the presence of inhibitors. Immulon 4HBX 384-well microtiter plates (Thermo part #8755) were coated with a 0.025 mg/mL solution of poly (Glu, Ala, Tyr; 6:3:1; Sigma P3899). Various concentrations of test compound, 2.5 nM TrkA (Invitrogen Corp., histidine-tagged recombinant human TrkA, cytoplasmic domain), and 500 uM ATP were incubated for 25 minutes at ambient temperature in the coated plates while shaking The assay buffer consisted of 25 mM MOPS pH 7.5, 0.005% (v/v) Triton X-100 and 5 mM MgCl2. The reaction mixture was removed from the plate by washing with PBS containing 0.1% (v/v) Tween 20. The phosphorylated reaction product was detected using 0.2 ug/mL of a phosphotyrosine specific monoclonal antibody (clone PY20) conjugated to horseradish peroxidase in conjunction with the TMB Peroxidase Substrate System (KPL).

>  <BAO Format ID>  (173) 
BAO_0000357

>  <BAO Label>  (173) 
single protein format

>  <Assay Organism>  (173) 
None

>  <Target ChEMBL ID>  (173) 
CHEMBL2815

>  <Target Name>  (173) 
Nerve growth factor receptor Trk-A

>  <Target Organism>  (173) 
Homo sapiens

>  <Target Type>  (173) 
SINGLE PROTEIN

>  <Document ChEMBL ID>  (173) 
CHEMBL3638907

>  <Source Description>  (173) 
BindingDB Database

>  <Document Journal>  (173) 
nan

>  <Document Year>  (173) 
2014.0

>  <Active>  (173) 
1.0

>  <bits>  (173) 
<rdkit.DataStructs.cDataStructs.ExplicitBitVect object at 0x00000159F6035FC0>

>  <Group>  (173) 
G2

$$$$

     RDKit          2D

 33 37  0  0  0  0  0  0  0  0999 V2000
   -8.0266   -7.3190    0.0000 C   0  0  0  0  0  0  0  0  0  0  0  0
   -7.2317   -6.0469    0.0000 C   0  0  0  0  0  0  0  0  0  0  0  0
   -8.6225   -5.4850    0.0000 O   0  0  0  0  0  0  0  0  0  0  0  0
   -6.9199   -4.5797    0.0000 C   0  0  0  0  0  0  0  0  0  0  0  0
   -5.4933   -4.1162    0.0000 C   0  0  0  0  0  0  0  0  0  0  0  0
   -4.3786   -5.1199    0.0000 C   0  0  0  0  0  0  0  0  0  0  0  0
   -2.9520   -4.6564    0.0000 N   0  0  0  0  0  0  0  0  0  0  0  0
   -2.6401   -3.1891    0.0000 C   0  0  0  0  0  0  0  0  0  0  0  0
   -3.7548   -2.1855    0.0000 O   0  0  0  0  0  0  0  0  0  0  0  0
   -1.2135   -2.7256    0.0000 C   0  0  0  0  0  0  0  0  0  0  0  0
   -0.0000   -3.6073    0.0000 C   0  0  0  0  0  0  0  0  0  0  0  0
    1.2135   -2.7256    0.0000 N   0  0  0  0  0  0  0  0  0  0  0  0
    0.7500   -1.2990    0.0000 N   0  0  0  0  0  0  0  0  0  0  0  0
    1.5000    0.0000    0.0000 C   0  0  0  0  0  0  0  0  0  0  0  0
    0.7500    1.2990    0.0000 C   0  0  0  0  0  0  0  0  0  0  0  0
   -0.7500    1.2990    0.0000 C   0  0  0  0  0  0  0  0  0  0  0  0
   -1.5000    2.5981    0.0000 N   0  0  0  0  0  0  0  0  0  0  0  0
   -2.9918    2.7549    0.0000 C   0  0  0  0  0  0  0  0  0  0  0  0
   -3.3037    4.2221    0.0000 C   0  0  0  0  0  0  0  0  0  0  0  0
   -2.0046    4.9721    0.0000 C   0  0  0  0  0  0  0  0  0  0  0  0
   -0.8899    3.9684    0.0000 C   0  0  0  0  0  0  0  0  0  0  0  0
    0.5773    4.2803    0.0000 C   0  0  0  0  0  0  0  0  0  0  0  0
    1.5810    3.1655    0.0000 C   0  0  0  0  0  0  0  0  0  0  0  0
    3.0482    3.4774    0.0000 C   0  0  0  0  0  0  0  0  0  0  0  0
    4.0519    2.3627    0.0000 F   0  0  0  0  0  0  0  0  0  0  0  0
    3.5118    4.9040    0.0000 C   0  0  0  0  0  0  0  0  0  0  0  0
    2.5081    6.0187    0.0000 C   0  0  0  0  0  0  0  0  0  0  0  0
    1.0409    5.7068    0.0000 C   0  0  0  0  0  0  0  0  0  0  0  0
    0.0372    6.8216    0.0000 F   0  0  0  0  0  0  0  0  0  0  0  0
   -1.5000    0.0000    0.0000 N   0  0  0  0  0  0  0  0  0  0  0  0
   -0.7500   -1.2990    0.0000 C   0  0  0  0  0  0  0  0  0  0  0  0
   -4.6904   -6.5871    0.0000 C   0  0  0  0  0  0  0  0  0  0  0  0
   -6.1170   -7.0506    0.0000 C   0  0  0  0  0  0  0  0  0  0  0  0
  1  2  1  0
  2  3  1  0
  2  4  1  0
  4  5  1  0
  5  6  1  0
  6  7  1  0
  7  8  1  0
  8  9  2  0
  8 10  1  0
 10 11  1  0
 11 12  2  0
 12 13  1  0
 13 14  1  0
 14 15  2  0
 15 16  1  0
 16 17  1  0
 17 18  1  0
 18 19  1  0
 19 20  1  0
 20 21  1  0
 21 22  1  6
 22 23  2  0
 23 24  1  0
 24 25  1  0
 24 26  2  0
 26 27  1  0
 27 28  2  0
 28 29  1  0
 16 30  2  0
 30 31  1  0
  6 32  1  0
 32 33  1  0
 33  2  1  0
 31 10  2  0
 31 13  1  0
 21 17  1  0
 28 22  1  0
M  END
>  <Compound_ID>  (174) 
CHEMBL3916880

>  <Molecule Name>  (174) 
nan

>  <Molecular Weight>  (174) 
455.51

>  <AlogP>  (174) 
3.77

>  <Smiles>  (174) 
CC1(O)CCC(NC(=O)c2cnn3ccc(N4CCC[C@@H]4c4cc(F)ccc4F)nc23)CC1

>  <Standard Type>  (174) 
IC50

>  <Standard Relation>  (174) 
'='

>  <Standard Units>  (174) 
nM

>  <Standard Value>  (174) 
1.23

>  <Assay ChEMBL ID>  (174) 
CHEMBL3887070

>  <Assay Description>  (174) 
ELISA Assay: An enzyme-linked immunosorbant assay (ELISA) was used to assess TrkA kinase activity in the presence of inhibitors. Immulon 4HBX 384-well microtiter plates (Thermo part #8755) were coated with a 0.025 mg/mL solution of poly (Glu, Ala, Tyr; 6:3:1; Sigma P3899). Various concentrations of test compound, 2.5 nM TrkA (Invitrogen Corp., histidine-tagged recombinant human TrkA, cytoplasmic domain), and 500 uM ATP were incubated for 25 minutes at ambient temperature in the coated plates while shaking The assay buffer consisted of 25 mM MOPS pH 7.5, 0.005% (v/v) Triton X-100 and 5 mM MgCl2. The reaction mixture was removed from the plate by washing with PBS containing 0.1% (v/v) Tween 20. The phosphorylated reaction product was detected using 0.2 ug/mL of a phosphotyrosine specific monoclonal antibody (clone PY20) conjugated to horseradish peroxidase in conjunction with the TMB Peroxidase Substrate System (KPL).

>  <BAO Format ID>  (174) 
BAO_0000357

>  <BAO Label>  (174) 
single protein format

>  <Assay Organism>  (174) 
None

>  <Target ChEMBL ID>  (174) 
CHEMBL2815

>  <Target Name>  (174) 
Nerve growth factor receptor Trk-A

>  <Target Organism>  (174) 
Homo sapiens

>  <Target Type>  (174) 
SINGLE PROTEIN

>  <Document ChEMBL ID>  (174) 
CHEMBL3638907

>  <Source Description>  (174) 
BindingDB Database

>  <Document Journal>  (174) 
nan

>  <Document Year>  (174) 
2014.0

>  <Active>  (174) 
1.0

>  <bits>  (174) 
<rdkit.DataStructs.cDataStructs.ExplicitBitVect object at 0x00000159F6037E60>

>  <Group>  (174) 
G2

$$$$

     RDKit          2D

 27 30  0  0  0  0  0  0  0  0999 V2000
   -4.3786   -5.1199    0.0000 C   0  0  0  0  0  0  0  0  0  0  0  0
   -2.9520   -4.6564    0.0000 N   0  0  0  0  0  0  0  0  0  0  0  0
   -2.6401   -3.1891    0.0000 C   0  0  0  0  0  0  0  0  0  0  0  0
   -3.7548   -2.1855    0.0000 O   0  0  0  0  0  0  0  0  0  0  0  0
   -1.2135   -2.7256    0.0000 C   0  0  0  0  0  0  0  0  0  0  0  0
   -0.0000   -3.6073    0.0000 C   0  0  0  0  0  0  0  0  0  0  0  0
    1.2135   -2.7256    0.0000 N   0  0  0  0  0  0  0  0  0  0  0  0
    0.7500   -1.2990    0.0000 N   0  0  0  0  0  0  0  0  0  0  0  0
    1.5000    0.0000    0.0000 C   0  0  0  0  0  0  0  0  0  0  0  0
    0.7500    1.2990    0.0000 C   0  0  0  0  0  0  0  0  0  0  0  0
   -0.7500    1.2990    0.0000 C   0  0  0  0  0  0  0  0  0  0  0  0
   -1.5000    2.5981    0.0000 N   0  0  0  0  0  0  0  0  0  0  0  0
   -2.9918    2.7549    0.0000 C   0  0  0  0  0  0  0  0  0  0  0  0
   -3.3037    4.2221    0.0000 C   0  0  0  0  0  0  0  0  0  0  0  0
   -2.0046    4.9721    0.0000 C   0  0  0  0  0  0  0  0  0  0  0  0
   -0.8899    3.9684    0.0000 C   0  0  0  0  0  0  0  0  0  0  0  0
    0.5773    4.2803    0.0000 C   0  0  0  0  0  0  0  0  0  0  0  0
    1.5810    3.1655    0.0000 C   0  0  0  0  0  0  0  0  0  0  0  0
    3.0482    3.4774    0.0000 C   0  0  0  0  0  0  0  0  0  0  0  0
    4.0519    2.3627    0.0000 F   0  0  0  0  0  0  0  0  0  0  0  0
    3.5118    4.9040    0.0000 C   0  0  0  0  0  0  0  0  0  0  0  0
    2.5081    6.0187    0.0000 N   0  0  0  0  0  0  0  0  0  0  0  0
    1.0409    5.7068    0.0000 C   0  0  0  0  0  0  0  0  0  0  0  0
    0.0372    6.8216    0.0000 O   0  0  0  0  0  0  0  0  0  0  0  0
    0.5007    8.2481    0.0000 C   0  0  0  0  0  0  0  0  0  0  0  0
   -1.5000    0.0000    0.0000 N   0  0  0  0  0  0  0  0  0  0  0  0
   -0.7500   -1.2990    0.0000 C   0  0  0  0  0  0  0  0  0  0  0  0
  1  2  1  0
  2  3  1  0
  3  4  2  0
  3  5  1  0
  5  6  1  0
  6  7  2  0
  7  8  1  0
  8  9  1  0
  9 10  2  0
 10 11  1  0
 11 12  1  0
 12 13  1  0
 13 14  1  0
 14 15  1  0
 15 16  1  0
 16 17  1  6
 17 18  2  0
 18 19  1  0
 19 20  1  0
 19 21  2  0
 21 22  1  0
 22 23  2  0
 23 24  1  0
 24 25  1  0
 11 26  2  0
 26 27  1  0
 27  5  2  0
 27  8  1  0
 16 12  1  0
 23 17  1  0
M  END
>  <Compound_ID>  (175) 
CHEMBL3676024

>  <Molecule Name>  (175) 
nan

>  <Molecular Weight>  (175) 
370.39

>  <AlogP>  (175) 
1.97

>  <Smiles>  (175) 
CNC(=O)c1cnn2ccc(N3CCC[C@@H]3c3cc(F)cnc3OC)nc12

>  <Standard Type>  (175) 
IC50

>  <Standard Relation>  (175) 
'='

>  <Standard Units>  (175) 
nM

>  <Standard Value>  (175) 
2.1

>  <Assay ChEMBL ID>  (175) 
CHEMBL3887070

>  <Assay Description>  (175) 
ELISA Assay: An enzyme-linked immunosorbant assay (ELISA) was used to assess TrkA kinase activity in the presence of inhibitors. Immulon 4HBX 384-well microtiter plates (Thermo part #8755) were coated with a 0.025 mg/mL solution of poly (Glu, Ala, Tyr; 6:3:1; Sigma P3899). Various concentrations of test compound, 2.5 nM TrkA (Invitrogen Corp., histidine-tagged recombinant human TrkA, cytoplasmic domain), and 500 uM ATP were incubated for 25 minutes at ambient temperature in the coated plates while shaking The assay buffer consisted of 25 mM MOPS pH 7.5, 0.005% (v/v) Triton X-100 and 5 mM MgCl2. The reaction mixture was removed from the plate by washing with PBS containing 0.1% (v/v) Tween 20. The phosphorylated reaction product was detected using 0.2 ug/mL of a phosphotyrosine specific monoclonal antibody (clone PY20) conjugated to horseradish peroxidase in conjunction with the TMB Peroxidase Substrate System (KPL).

>  <BAO Format ID>  (175) 
BAO_0000357

>  <BAO Label>  (175) 
single protein format

>  <Assay Organism>  (175) 
None

>  <Target ChEMBL ID>  (175) 
CHEMBL2815

>  <Target Name>  (175) 
Nerve growth factor receptor Trk-A

>  <Target Organism>  (175) 
Homo sapiens

>  <Target Type>  (175) 
SINGLE PROTEIN

>  <Document ChEMBL ID>  (175) 
CHEMBL3638907

>  <Source Description>  (175) 
BindingDB Database

>  <Document Journal>  (175) 
nan

>  <Document Year>  (175) 
2014.0

>  <Active>  (175) 
1.0

>  <bits>  (175) 
<rdkit.DataStructs.cDataStructs.ExplicitBitVect object at 0x00000159F60371B0>

>  <Group>  (175) 
G2

$$$$

     RDKit          2D

 30 33  0  0  0  0  0  0  0  0999 V2000
   -3.9150   -6.5465    0.0000 C   0  0  0  0  0  0  0  0  0  0  0  0
   -4.3786   -5.1199    0.0000 C   0  0  0  0  0  0  0  0  0  0  0  0
   -4.8421   -3.6933    0.0000 C   0  0  0  0  0  0  0  0  0  0  0  0
   -5.8051   -5.5834    0.0000 C   0  0  0  0  0  0  0  0  0  0  0  0
   -6.9199   -4.5797    0.0000 O   0  0  0  0  0  0  0  0  0  0  0  0
   -2.9520   -4.6564    0.0000 C   0  0  0  0  0  0  0  0  0  0  0  0
   -1.8373   -5.6601    0.0000 O   0  0  0  0  0  0  0  0  0  0  0  0
   -2.6401   -3.1891    0.0000 N   0  0  0  0  0  0  0  0  0  0  0  0
   -1.2135   -2.7256    0.0000 C   0  0  0  0  0  0  0  0  0  0  0  0
   -0.0000   -3.6073    0.0000 C   0  0  0  0  0  0  0  0  0  0  0  0
    1.2135   -2.7256    0.0000 N   0  0  0  0  0  0  0  0  0  0  0  0
    0.7500   -1.2990    0.0000 N   0  0  0  0  0  0  0  0  0  0  0  0
    1.5000    0.0000    0.0000 C   0  0  0  0  0  0  0  0  0  0  0  0
    0.7500    1.2990    0.0000 C   0  0  0  0  0  0  0  0  0  0  0  0
   -0.7500    1.2990    0.0000 C   0  0  0  0  0  0  0  0  0  0  0  0
   -1.5000    2.5981    0.0000 N   0  0  0  0  0  0  0  0  0  0  0  0
   -2.9918    2.7549    0.0000 C   0  0  0  0  0  0  0  0  0  0  0  0
   -3.3037    4.2221    0.0000 C   0  0  0  0  0  0  0  0  0  0  0  0
   -2.0046    4.9721    0.0000 C   0  0  0  0  0  0  0  0  0  0  0  0
   -0.8899    3.9684    0.0000 C   0  0  0  0  0  0  0  0  0  0  0  0
    0.5773    4.2803    0.0000 C   0  0  0  0  0  0  0  0  0  0  0  0
    1.5810    3.1655    0.0000 C   0  0  0  0  0  0  0  0  0  0  0  0
    3.0482    3.4774    0.0000 C   0  0  0  0  0  0  0  0  0  0  0  0
    4.0519    2.3627    0.0000 F   0  0  0  0  0  0  0  0  0  0  0  0
    3.5118    4.9040    0.0000 C   0  0  0  0  0  0  0  0  0  0  0  0
    2.5081    6.0187    0.0000 C   0  0  0  0  0  0  0  0  0  0  0  0
    1.0409    5.7068    0.0000 C   0  0  0  0  0  0  0  0  0  0  0  0
    0.0372    6.8216    0.0000 F   0  0  0  0  0  0  0  0  0  0  0  0
   -1.5000    0.0000    0.0000 N   0  0  0  0  0  0  0  0  0  0  0  0
   -0.7500   -1.2990    0.0000 C   0  0  0  0  0  0  0  0  0  0  0  0
  1  2  1  0
  2  3  1  0
  2  4  1  0
  4  5  1  0
  2  6  1  0
  6  7  2  0
  6  8  1  0
  8  9  1  0
  9 10  1  0
 10 11  2  0
 11 12  1  0
 12 13  1  0
 13 14  2  0
 14 15  1  0
 15 16  1  0
 16 17  1  0
 17 18  1  0
 18 19  1  0
 19 20  1  0
 20 21  1  6
 21 22  2  0
 22 23  1  0
 23 24  1  0
 23 25  2  0
 25 26  1  0
 26 27  2  0
 27 28  1  0
 15 29  2  0
 29 30  1  0
 30  9  2  0
 30 12  1  0
 20 16  1  0
 27 21  1  0
M  END
>  <Compound_ID>  (176) 
CHEMBL4108478

>  <Molecule Name>  (176) 
nan

>  <Molecular Weight>  (176) 
415.44

>  <AlogP>  (176) 
3.31

>  <Smiles>  (176) 
CC(C)(CO)C(=O)Nc1cnn2ccc(N3CCC[C@@H]3c3cc(F)ccc3F)nc12

>  <Standard Type>  (176) 
IC50

>  <Standard Relation>  (176) 
'='

>  <Standard Units>  (176) 
nM

>  <Standard Value>  (176) 
7.5

>  <Assay ChEMBL ID>  (176) 
CHEMBL3887076

>  <Assay Description>  (176) 
ELISA Assay: An enzyme-linked immunosorbant assay (ELISA) was used to assess TrkA kinase activity in the presence of inhibitors. Immulon 4HBX 384-well microtiter plates (Thermo part #8755) were coated with a 0.025 mg/mL solution of poly (Glu, Ala, Tyr; 6:3:1; Sigma P3899). Various concentrations of test compound, 2.5 nM TrkA (Invitrogen Corp., histidine-tagged recombinant human TrkA, cytoplasmic domain), and 500 uM ATP were incubated for 25 minutes at ambient temperature in the coated plates while shaking. The assay buffer consisted of 25 mM MOPS pH 7.5, 0.005% (v/v) Triton X-100 and 5 mM MgCl2. The reaction mixture was removed from the plate by washing with PBS containing 0.1% (v/v) Tween 20. The phosphorylated reaction product was detected using 0.2 ug/mL of a phosphotyrosine specific monoclonal antibody (clone PY20) conjugated to horseradish peroxidase in conjunction with the TMB Peroxidase Substrate System (KPL).

>  <BAO Format ID>  (176) 
BAO_0000357

>  <BAO Label>  (176) 
single protein format

>  <Assay Organism>  (176) 
None

>  <Target ChEMBL ID>  (176) 
CHEMBL2815

>  <Target Name>  (176) 
Nerve growth factor receptor Trk-A

>  <Target Organism>  (176) 
Homo sapiens

>  <Target Type>  (176) 
SINGLE PROTEIN

>  <Document ChEMBL ID>  (176) 
CHEMBL3886151

>  <Source Description>  (176) 
BindingDB Database

>  <Document Journal>  (176) 
nan

>  <Document Year>  (176) 
2014.0

>  <Active>  (176) 
1.0

>  <bits>  (176) 
<rdkit.DataStructs.cDataStructs.ExplicitBitVect object at 0x00000159F6035850>

>  <Group>  (176) 
G2

$$$$

     RDKit          2D

 41 46  0  0  0  0  0  0  0  0999 V2000
    5.7997    1.0344    0.0000 C   0  0  0  0  0  0  0  0  0  0  0  0
    4.7960    2.1491    0.0000 C   0  0  0  0  0  0  0  0  0  0  0  0
    5.2595    3.5757    0.0000 C   0  0  0  0  0  0  0  0  0  0  0  0
    6.7267    3.8876    0.0000 C   0  0  0  0  0  0  0  0  0  0  0  0
    7.7304    2.7729    0.0000 C   0  0  0  0  0  0  0  0  0  0  0  0
    7.2669    1.3463    0.0000 F   0  0  0  0  0  0  0  0  0  0  0  0
    9.1976    3.0847    0.0000 C   0  0  0  0  0  0  0  0  0  0  0  0
   10.2013    1.9700    0.0000 F   0  0  0  0  0  0  0  0  0  0  0  0
    9.6612    4.5113    0.0000 C   0  0  0  0  0  0  0  0  0  0  0  0
    8.6575    5.6260    0.0000 C   0  0  0  0  0  0  0  0  0  0  0  0
    9.1210    7.0526    0.0000 F   0  0  0  0  0  0  0  0  0  0  0  0
    7.1902    5.3142    0.0000 C   0  0  0  0  0  0  0  0  0  0  0  0
    6.1865    6.4289    0.0000 F   0  0  0  0  0  0  0  0  0  0  0  0
    3.3287    1.8373    0.0000 N   0  0  0  0  0  0  0  0  0  0  0  0
    2.3250    2.9520    0.0000 C   0  0  0  0  0  0  0  0  0  0  0  0
    2.7886    4.3786    0.0000 C   0  0  0  0  0  0  0  0  0  0  0  0
    1.7849    5.4933    0.0000 C   0  0  0  0  0  0  0  0  0  0  0  0
    0.3177    5.1814    0.0000 N   0  0  0  0  0  0  0  0  0  0  0  0
   -0.1459    3.7548    0.0000 C   0  0  0  0  0  0  0  0  0  0  0  0
   -1.6131    3.4430    0.0000 O   0  0  0  0  0  0  0  0  0  0  0  0
    0.8578    2.6401    0.0000 C   0  0  0  0  0  0  0  0  0  0  0  0
    0.3943    1.2135    0.0000 C   0  0  0  0  0  0  0  0  0  0  0  0
    1.2760    0.0000    0.0000 N   0  0  0  0  0  0  0  0  0  0  0  0
    0.3943   -1.2135    0.0000 C   0  0  0  0  0  0  0  0  0  0  0  0
    0.7062   -2.6807    0.0000 C   0  0  0  0  0  0  0  0  0  0  0  0
   -0.4086   -3.6844    0.0000 C   0  0  0  0  0  0  0  0  0  0  0  0
   -1.8351   -3.2209    0.0000 C   0  0  0  0  0  0  0  0  0  0  0  0
   -2.1470   -1.7537    0.0000 C   0  0  0  0  0  0  0  0  0  0  0  0
   -1.0323   -0.7500    0.0000 C   0  0  0  0  0  0  0  0  0  0  0  0
   -1.0323    0.7500    0.0000 N   0  0  0  0  0  0  0  0  0  0  0  0
   -2.7168   -4.4344    0.0000 C   0  0  0  0  0  0  0  0  0  0  0  0
   -4.2168   -4.4344    0.0000 O   0  0  0  0  0  0  0  0  0  0  0  0
   -1.8351   -5.6480    0.0000 N   0  0  0  0  0  0  0  0  0  0  0  0
   -2.2987   -7.0746    0.0000 C   0  0  0  0  0  0  0  0  0  0  0  0
   -3.7659   -7.3864    0.0000 C   0  0  0  0  0  0  0  0  0  0  0  0
   -4.2294   -8.8130    0.0000 C   0  0  0  0  0  0  0  0  0  0  0  0
   -3.2257   -9.9277    0.0000 C   0  0  0  0  0  0  0  0  0  0  0  0
   -1.7585   -9.6159    0.0000 N   0  0  0  0  0  0  0  0  0  0  0  0
   -1.2950   -8.1893    0.0000 C   0  0  0  0  0  0  0  0  0  0  0  0
   -0.4086   -5.1844    0.0000 C   0  0  0  0  0  0  0  0  0  0  0  0
    0.8050   -6.0661    0.0000 O   0  0  0  0  0  0  0  0  0  0  0  0
  2  1  1  6
  2  3  1  0
  3  4  1  0
  4  5  2  0
  5  6  1  0
  5  7  1  0
  7  8  1  0
  7  9  2  0
  9 10  1  0
 10 11  1  0
 10 12  2  0
 12 13  1  0
  2 14  1  0
 14 15  1  0
 15 16  1  0
 16 17  2  0
 17 18  1  0
 18 19  1  0
 19 20  2  0
 19 21  1  0
 21 22  1  0
 22 23  2  0
 23 24  1  0
 24 25  2  0
 25 26  1  0
 26 27  2  0
 27 28  1  0
 28 29  2  0
 29 30  1  0
 27 31  1  0
 31 32  1  0
 31 33  1  0
 33 34  1  0
 34 35  2  0
 35 36  1  0
 36 37  2  0
 37 38  1  0
 38 39  2  0
 33 40  1  0
 40 41  2  0
 12  4  1  0
 21 15  2  0
 30 22  1  0
 39 34  1  0
 29 24  1  0
 40 26  1  0
M  END
>  <Compound_ID>  (177) 
CHEMBL3671314

>  <Molecule Name>  (177) 
nan

>  <Molecular Weight>  (177) 
564.5

>  <AlogP>  (177) 
4.56

>  <Smiles>  (177) 
C[C@@H](Cc1c(F)c(F)cc(F)c1F)Nc1cc[nH]c(=O)c1-c1nc2cc3c(cc2[nH]1)C(O)N(c1cccnc1)C3=O

>  <Standard Type>  (177) 
IC50

>  <Standard Relation>  (177) 
'='

>  <Standard Units>  (177) 
nM

>  <Standard Value>  (177) 
6.357

>  <Assay ChEMBL ID>  (177) 
CHEMBL3887072

>  <Assay Description>  (177) 
In Vitro Kinase Activity Assay: Compounds to be tested were dissolved in 100% DMSO in a range of concentrations from 10-8 to 10-3 M including negative control (DMSO), then diluted with Kinase Buffer (50 mM HEPES, pH 7.5, 1 mM EGTA, 10 mM MgCl2, 0.01% Tween-20, and 2 mM DTT, added fresh) to 4x the final concentration. The final curve included 11 concentrations (10-11 to 10-5 M) plus negative control DMSO tested in triplicate.Kinase and ATP concentrations necessary for optimal activity were determined in separate experiments. (Table 2). Briefly, increasing concentrations of kinase were incubated in a fixed concentration of ATP (200 uM) in Kinase Buffer to determine maximal activity at various time points (30-120 min). The concentration of kinase that resulted in maximal activity with the shortest incubation time was then incubated in Kinase Buffer with increasing concentrations of ATP.

>  <BAO Format ID>  (177) 
BAO_0000357

>  <BAO Label>  (177) 
single protein format

>  <Assay Organism>  (177) 
None

>  <Target ChEMBL ID>  (177) 
CHEMBL2815

>  <Target Name>  (177) 
Nerve growth factor receptor Trk-A

>  <Target Organism>  (177) 
Homo sapiens

>  <Target Type>  (177) 
SINGLE PROTEIN

>  <Document ChEMBL ID>  (177) 
CHEMBL3639188

>  <Source Description>  (177) 
BindingDB Database

>  <Document Journal>  (177) 
nan

>  <Document Year>  (177) 
2014.0

>  <Active>  (177) 
1.0

>  <bits>  (177) 
<rdkit.DataStructs.cDataStructs.ExplicitBitVect object at 0x00000159F6034DD0>

>  <Group>  (177) 
G2

$$$$

     RDKit          2D

 24 27  0  0  0  0  0  0  0  0999 V2000
   -2.9520   -4.6564    0.0000 N   0  0  0  0  0  0  0  0  0  0  0  0
   -2.6401   -3.1891    0.0000 C   0  0  0  0  0  0  0  0  0  0  0  0
   -3.7548   -2.1855    0.0000 O   0  0  0  0  0  0  0  0  0  0  0  0
   -1.2135   -2.7256    0.0000 C   0  0  0  0  0  0  0  0  0  0  0  0
   -0.0000   -3.6073    0.0000 C   0  0  0  0  0  0  0  0  0  0  0  0
    1.2135   -2.7256    0.0000 N   0  0  0  0  0  0  0  0  0  0  0  0
    0.7500   -1.2990    0.0000 N   0  0  0  0  0  0  0  0  0  0  0  0
    1.5000    0.0000    0.0000 C   0  0  0  0  0  0  0  0  0  0  0  0
    0.7500    1.2990    0.0000 C   0  0  0  0  0  0  0  0  0  0  0  0
   -0.7500    1.2990    0.0000 C   0  0  0  0  0  0  0  0  0  0  0  0
   -1.5000    2.5981    0.0000 N   0  0  0  0  0  0  0  0  0  0  0  0
   -2.9918    2.7549    0.0000 C   0  0  0  0  0  0  0  0  0  0  0  0
   -3.3037    4.2221    0.0000 C   0  0  0  0  0  0  0  0  0  0  0  0
   -2.0046    4.9721    0.0000 C   0  0  0  0  0  0  0  0  0  0  0  0
   -0.8899    3.9684    0.0000 C   0  0  0  0  0  0  0  0  0  0  0  0
    0.5773    4.2803    0.0000 C   0  0  0  0  0  0  0  0  0  0  0  0
    1.5810    3.1655    0.0000 C   0  0  0  0  0  0  0  0  0  0  0  0
    3.0482    3.4774    0.0000 C   0  0  0  0  0  0  0  0  0  0  0  0
    3.5118    4.9040    0.0000 C   0  0  0  0  0  0  0  0  0  0  0  0
    2.5081    6.0187    0.0000 C   0  0  0  0  0  0  0  0  0  0  0  0
    2.9716    7.4453    0.0000 F   0  0  0  0  0  0  0  0  0  0  0  0
    1.0409    5.7068    0.0000 C   0  0  0  0  0  0  0  0  0  0  0  0
   -1.5000    0.0000    0.0000 N   0  0  0  0  0  0  0  0  0  0  0  0
   -0.7500   -1.2990    0.0000 C   0  0  0  0  0  0  0  0  0  0  0  0
  1  2  1  0
  2  3  2  0
  2  4  1  0
  4  5  1  0
  5  6  2  0
  6  7  1  0
  7  8  1  0
  8  9  2  0
  9 10  1  0
 10 11  1  0
 11 12  1  0
 12 13  1  0
 13 14  1  0
 14 15  1  0
 15 16  1  6
 16 17  2  0
 17 18  1  0
 18 19  2  0
 19 20  1  0
 20 21  1  0
 20 22  2  0
 10 23  2  0
 23 24  1  0
 24  4  2  0
 24  7  1  0
 15 11  1  0
 22 16  1  0
M  END
>  <Compound_ID>  (178) 
CHEMBL3675949

>  <Molecule Name>  (178) 
nan

>  <Molecular Weight>  (178) 
325.35

>  <AlogP>  (178) 
2.31

>  <Smiles>  (178) 
NC(=O)c1cnn2ccc(N3CCC[C@@H]3c3cccc(F)c3)nc12

>  <Standard Type>  (178) 
IC50

>  <Standard Relation>  (178) 
'='

>  <Standard Units>  (178) 
nM

>  <Standard Value>  (178) 
12.6

>  <Assay ChEMBL ID>  (178) 
CHEMBL3887070

>  <Assay Description>  (178) 
ELISA Assay: An enzyme-linked immunosorbant assay (ELISA) was used to assess TrkA kinase activity in the presence of inhibitors. Immulon 4HBX 384-well microtiter plates (Thermo part #8755) were coated with a 0.025 mg/mL solution of poly (Glu, Ala, Tyr; 6:3:1; Sigma P3899). Various concentrations of test compound, 2.5 nM TrkA (Invitrogen Corp., histidine-tagged recombinant human TrkA, cytoplasmic domain), and 500 uM ATP were incubated for 25 minutes at ambient temperature in the coated plates while shaking The assay buffer consisted of 25 mM MOPS pH 7.5, 0.005% (v/v) Triton X-100 and 5 mM MgCl2. The reaction mixture was removed from the plate by washing with PBS containing 0.1% (v/v) Tween 20. The phosphorylated reaction product was detected using 0.2 ug/mL of a phosphotyrosine specific monoclonal antibody (clone PY20) conjugated to horseradish peroxidase in conjunction with the TMB Peroxidase Substrate System (KPL).

>  <BAO Format ID>  (178) 
BAO_0000357

>  <BAO Label>  (178) 
single protein format

>  <Assay Organism>  (178) 
None

>  <Target ChEMBL ID>  (178) 
CHEMBL2815

>  <Target Name>  (178) 
Nerve growth factor receptor Trk-A

>  <Target Organism>  (178) 
Homo sapiens

>  <Target Type>  (178) 
SINGLE PROTEIN

>  <Document ChEMBL ID>  (178) 
CHEMBL3638907

>  <Source Description>  (178) 
BindingDB Database

>  <Document Journal>  (178) 
nan

>  <Document Year>  (178) 
2014.0

>  <Active>  (178) 
1.0

>  <bits>  (178) 
<rdkit.DataStructs.cDataStructs.ExplicitBitVect object at 0x00000159F6034120>

>  <Group>  (178) 
G2

$$$$

     RDKit          2D

 30 33  0  0  0  0  0  0  0  0999 V2000
   -3.9150   -6.5465    0.0000 C   0  0  0  0  0  0  0  0  0  0  0  0
   -4.3786   -5.1199    0.0000 C   0  0  0  0  0  0  0  0  0  0  0  0
   -4.8421   -3.6933    0.0000 C   0  0  0  0  0  0  0  0  0  0  0  0
   -5.8051   -5.5834    0.0000 C   0  0  0  0  0  0  0  0  0  0  0  0
   -2.9520   -4.6564    0.0000 N   0  0  0  0  0  0  0  0  0  0  0  0
   -2.6401   -3.1891    0.0000 C   0  0  0  0  0  0  0  0  0  0  0  0
   -3.7548   -2.1855    0.0000 O   0  0  0  0  0  0  0  0  0  0  0  0
   -1.2135   -2.7256    0.0000 C   0  0  0  0  0  0  0  0  0  0  0  0
   -0.0000   -3.6073    0.0000 C   0  0  0  0  0  0  0  0  0  0  0  0
    1.2135   -2.7256    0.0000 N   0  0  0  0  0  0  0  0  0  0  0  0
    0.7500   -1.2990    0.0000 N   0  0  0  0  0  0  0  0  0  0  0  0
    1.5000    0.0000    0.0000 C   0  0  0  0  0  0  0  0  0  0  0  0
    0.7500    1.2990    0.0000 C   0  0  0  0  0  0  0  0  0  0  0  0
   -0.7500    1.2990    0.0000 C   0  0  0  0  0  0  0  0  0  0  0  0
   -1.5000    2.5981    0.0000 N   0  0  0  0  0  0  0  0  0  0  0  0
   -2.9918    2.7549    0.0000 C   0  0  0  0  0  0  0  0  0  0  0  0
   -3.3037    4.2221    0.0000 C   0  0  0  0  0  0  0  0  0  0  0  0
   -4.7302    3.7586    0.0000 F   0  0  0  0  0  0  0  0  0  0  0  0
   -3.9138    5.5924    0.0000 F   0  0  0  0  0  0  0  0  0  0  0  0
   -2.0046    4.9721    0.0000 C   0  0  0  0  0  0  0  0  0  0  0  0
   -0.8899    3.9684    0.0000 C   0  0  0  0  0  0  0  0  0  0  0  0
    0.5773    4.2803    0.0000 C   0  0  0  0  0  0  0  0  0  0  0  0
    1.5810    3.1655    0.0000 C   0  0  0  0  0  0  0  0  0  0  0  0
    3.0482    3.4774    0.0000 C   0  0  0  0  0  0  0  0  0  0  0  0
    3.5118    4.9040    0.0000 C   0  0  0  0  0  0  0  0  0  0  0  0
    2.5081    6.0187    0.0000 C   0  0  0  0  0  0  0  0  0  0  0  0
    2.9716    7.4453    0.0000 F   0  0  0  0  0  0  0  0  0  0  0  0
    1.0409    5.7068    0.0000 C   0  0  0  0  0  0  0  0  0  0  0  0
   -1.5000    0.0000    0.0000 N   0  0  0  0  0  0  0  0  0  0  0  0
   -0.7500   -1.2990    0.0000 C   0  0  0  0  0  0  0  0  0  0  0  0
  1  2  1  0
  2  3  1  0
  2  4  1  0
  2  5  1  0
  5  6  1  0
  6  7  2  0
  6  8  1  0
  8  9  1  0
  9 10  2  0
 10 11  1  0
 11 12  1  0
 12 13  2  0
 13 14  1  0
 14 15  1  0
 15 16  1  0
 16 17  1  0
 17 18  1  0
 17 19  1  0
 17 20  1  0
 20 21  1  0
 21 22  1  6
 22 23  2  0
 23 24  1  0
 24 25  2  0
 25 26  1  0
 26 27  1  0
 26 28  2  0
 14 29  2  0
 29 30  1  0
 30  8  2  0
 30 11  1  0
 21 15  1  0
 28 22  1  0
M  END
>  <Compound_ID>  (179) 
CHEMBL3675935

>  <Molecule Name>  (179) 
nan

>  <Molecular Weight>  (179) 
417.44

>  <AlogP>  (179) 
3.98

>  <Smiles>  (179) 
CC(C)(C)NC(=O)c1cnn2ccc(N3CC(F)(F)C[C@@H]3c3cccc(F)c3)nc12

>  <Standard Type>  (179) 
IC50

>  <Standard Relation>  (179) 
'='

>  <Standard Units>  (179) 
nM

>  <Standard Value>  (179) 
16.95

>  <Assay ChEMBL ID>  (179) 
CHEMBL3887070

>  <Assay Description>  (179) 
ELISA Assay: An enzyme-linked immunosorbant assay (ELISA) was used to assess TrkA kinase activity in the presence of inhibitors. Immulon 4HBX 384-well microtiter plates (Thermo part #8755) were coated with a 0.025 mg/mL solution of poly (Glu, Ala, Tyr; 6:3:1; Sigma P3899). Various concentrations of test compound, 2.5 nM TrkA (Invitrogen Corp., histidine-tagged recombinant human TrkA, cytoplasmic domain), and 500 uM ATP were incubated for 25 minutes at ambient temperature in the coated plates while shaking The assay buffer consisted of 25 mM MOPS pH 7.5, 0.005% (v/v) Triton X-100 and 5 mM MgCl2. The reaction mixture was removed from the plate by washing with PBS containing 0.1% (v/v) Tween 20. The phosphorylated reaction product was detected using 0.2 ug/mL of a phosphotyrosine specific monoclonal antibody (clone PY20) conjugated to horseradish peroxidase in conjunction with the TMB Peroxidase Substrate System (KPL).

>  <BAO Format ID>  (179) 
BAO_0000357

>  <BAO Label>  (179) 
single protein format

>  <Assay Organism>  (179) 
None

>  <Target ChEMBL ID>  (179) 
CHEMBL2815

>  <Target Name>  (179) 
Nerve growth factor receptor Trk-A

>  <Target Organism>  (179) 
Homo sapiens

>  <Target Type>  (179) 
SINGLE PROTEIN

>  <Document ChEMBL ID>  (179) 
CHEMBL3638907

>  <Source Description>  (179) 
BindingDB Database

>  <Document Journal>  (179) 
nan

>  <Document Year>  (179) 
2014.0

>  <Active>  (179) 
1.0

>  <bits>  (179) 
<rdkit.DataStructs.cDataStructs.ExplicitBitVect object at 0x00000159F60363B0>

>  <Group>  (179) 
G2

$$$$

     RDKit          2D

 32 36  0  0  0  0  0  0  0  0999 V2000
   -8.6583   -6.5105    0.0000 C   0  0  0  0  0  0  0  0  0  0  0  0
   -7.2317   -6.0469    0.0000 N   0  0  0  0  0  0  0  0  0  0  0  0
   -6.9199   -4.5797    0.0000 C   0  0  0  0  0  0  0  0  0  0  0  0
   -5.4933   -4.1162    0.0000 C   0  0  0  0  0  0  0  0  0  0  0  0
   -4.3786   -5.1199    0.0000 C   0  0  0  0  0  0  0  0  0  0  0  0
   -2.9520   -4.6564    0.0000 C   0  0  0  0  0  0  0  0  0  0  0  0
   -1.8373   -5.6601    0.0000 O   0  0  0  0  0  0  0  0  0  0  0  0
   -2.6401   -3.1891    0.0000 N   0  0  0  0  0  0  0  0  0  0  0  0
   -1.2135   -2.7256    0.0000 C   0  0  0  0  0  0  0  0  0  0  0  0
   -0.0000   -3.6073    0.0000 C   0  0  0  0  0  0  0  0  0  0  0  0
    1.2135   -2.7256    0.0000 N   0  0  0  0  0  0  0  0  0  0  0  0
    0.7500   -1.2990    0.0000 N   0  0  0  0  0  0  0  0  0  0  0  0
    1.5000    0.0000    0.0000 C   0  0  0  0  0  0  0  0  0  0  0  0
    0.7500    1.2990    0.0000 C   0  0  0  0  0  0  0  0  0  0  0  0
   -0.7500    1.2990    0.0000 C   0  0  0  0  0  0  0  0  0  0  0  0
   -1.5000    2.5981    0.0000 N   0  0  0  0  0  0  0  0  0  0  0  0
   -2.9918    2.7549    0.0000 C   0  0  0  0  0  0  0  0  0  0  0  0
   -3.3037    4.2221    0.0000 C   0  0  0  0  0  0  0  0  0  0  0  0
   -2.0046    4.9721    0.0000 C   0  0  0  0  0  0  0  0  0  0  0  0
   -0.8899    3.9684    0.0000 C   0  0  0  0  0  0  0  0  0  0  0  0
    0.5773    4.2803    0.0000 C   0  0  0  0  0  0  0  0  0  0  0  0
    1.5810    3.1655    0.0000 C   0  0  0  0  0  0  0  0  0  0  0  0
    3.0482    3.4774    0.0000 C   0  0  0  0  0  0  0  0  0  0  0  0
    3.5118    4.9040    0.0000 C   0  0  0  0  0  0  0  0  0  0  0  0
    2.5081    6.0187    0.0000 C   0  0  0  0  0  0  0  0  0  0  0  0
    2.9716    7.4453    0.0000 F   0  0  0  0  0  0  0  0  0  0  0  0
    1.0409    5.7068    0.0000 C   0  0  0  0  0  0  0  0  0  0  0  0
   -1.5000    0.0000    0.0000 N   0  0  0  0  0  0  0  0  0  0  0  0
   -0.7500   -1.2990    0.0000 C   0  0  0  0  0  0  0  0  0  0  0  0
   -4.6904   -6.5871    0.0000 C   0  0  0  0  0  0  0  0  0  0  0  0
   -6.1170   -7.0506    0.0000 C   0  0  0  0  0  0  0  0  0  0  0  0
   -6.4289   -8.5179    0.0000 O   0  0  0  0  0  0  0  0  0  0  0  0
  1  2  1  0
  2  3  1  0
  3  4  2  0
  4  5  1  0
  5  6  1  0
  6  7  2  0
  6  8  1  0
  8  9  1  0
  9 10  1  0
 10 11  2  0
 11 12  1  0
 12 13  1  0
 13 14  2  0
 14 15  1  0
 15 16  1  0
 16 17  1  0
 17 18  1  0
 18 19  1  0
 19 20  1  0
 20 21  1  6
 21 22  2  0
 22 23  1  0
 23 24  2  0
 24 25  1  0
 25 26  1  0
 25 27  2  0
 15 28  2  0
 28 29  1  0
  5 30  2  0
 30 31  1  0
 31 32  2  0
 31  2  1  0
 29  9  2  0
 29 12  1  0
 20 16  1  0
 27 21  1  0
M  END
>  <Compound_ID>  (180) 
CHEMBL4109250

>  <Molecule Name>  (180) 
nan

>  <Molecular Weight>  (180) 
432.46

>  <AlogP>  (180) 
3.16

>  <Smiles>  (180) 
Cn1ccc(C(=O)Nc2cnn3ccc(N4CCC[C@@H]4c4cccc(F)c4)nc23)cc1=O

>  <Standard Type>  (180) 
IC50

>  <Standard Relation>  (180) 
'='

>  <Standard Units>  (180) 
nM

>  <Standard Value>  (180) 
55.6

>  <Assay ChEMBL ID>  (180) 
CHEMBL3887076

>  <Assay Description>  (180) 
ELISA Assay: An enzyme-linked immunosorbant assay (ELISA) was used to assess TrkA kinase activity in the presence of inhibitors. Immulon 4HBX 384-well microtiter plates (Thermo part #8755) were coated with a 0.025 mg/mL solution of poly (Glu, Ala, Tyr; 6:3:1; Sigma P3899). Various concentrations of test compound, 2.5 nM TrkA (Invitrogen Corp., histidine-tagged recombinant human TrkA, cytoplasmic domain), and 500 uM ATP were incubated for 25 minutes at ambient temperature in the coated plates while shaking. The assay buffer consisted of 25 mM MOPS pH 7.5, 0.005% (v/v) Triton X-100 and 5 mM MgCl2. The reaction mixture was removed from the plate by washing with PBS containing 0.1% (v/v) Tween 20. The phosphorylated reaction product was detected using 0.2 ug/mL of a phosphotyrosine specific monoclonal antibody (clone PY20) conjugated to horseradish peroxidase in conjunction with the TMB Peroxidase Substrate System (KPL).

>  <BAO Format ID>  (180) 
BAO_0000357

>  <BAO Label>  (180) 
single protein format

>  <Assay Organism>  (180) 
None

>  <Target ChEMBL ID>  (180) 
CHEMBL2815

>  <Target Name>  (180) 
Nerve growth factor receptor Trk-A

>  <Target Organism>  (180) 
Homo sapiens

>  <Target Type>  (180) 
SINGLE PROTEIN

>  <Document ChEMBL ID>  (180) 
CHEMBL3886151

>  <Source Description>  (180) 
BindingDB Database

>  <Document Journal>  (180) 
nan

>  <Document Year>  (180) 
2014.0

>  <Active>  (180) 
1.0

>  <bits>  (180) 
<rdkit.DataStructs.cDataStructs.ExplicitBitVect object at 0x00000159F60375A0>

>  <Group>  (180) 
G2

$$$$

     RDKit          2D

 34 38  0  0  0  0  0  0  0  0999 V2000
   -7.0526  -11.4523    0.0000 C   0  0  0  0  0  0  0  0  0  0  0  0
   -5.6260  -10.9888    0.0000 O   0  0  0  0  0  0  0  0  0  0  0  0
   -5.3142   -9.5216    0.0000 C   0  0  0  0  0  0  0  0  0  0  0  0
   -6.4289   -8.5179    0.0000 C   0  0  0  0  0  0  0  0  0  0  0  0
   -6.1170   -7.0506    0.0000 C   0  0  0  0  0  0  0  0  0  0  0  0
   -4.6904   -6.5871    0.0000 C   0  0  0  0  0  0  0  0  0  0  0  0
   -4.3786   -5.1199    0.0000 N   0  0  0  0  0  0  0  0  0  0  0  0
   -2.9520   -4.6564    0.0000 C   0  0  0  0  0  0  0  0  0  0  0  0
   -1.8373   -5.6601    0.0000 O   0  0  0  0  0  0  0  0  0  0  0  0
   -2.6401   -3.1891    0.0000 N   0  0  0  0  0  0  0  0  0  0  0  0
   -1.2135   -2.7256    0.0000 C   0  0  0  0  0  0  0  0  0  0  0  0
   -0.0000   -3.6073    0.0000 C   0  0  0  0  0  0  0  0  0  0  0  0
    1.2135   -2.7256    0.0000 N   0  0  0  0  0  0  0  0  0  0  0  0
    0.7500   -1.2990    0.0000 C   0  0  0  0  0  0  0  0  0  0  0  0
    1.5000    0.0000    0.0000 C   0  0  0  0  0  0  0  0  0  0  0  0
    0.7500    1.2990    0.0000 C   0  0  0  0  0  0  0  0  0  0  0  0
   -0.7500    1.2990    0.0000 C   0  0  0  0  0  0  0  0  0  0  0  0
   -1.5000    2.5981    0.0000 N   0  0  0  0  0  0  0  0  0  0  0  0
   -2.9918    2.7549    0.0000 C   0  0  0  0  0  0  0  0  0  0  0  0
   -3.3037    4.2221    0.0000 C   0  0  0  0  0  0  0  0  0  0  0  0
   -2.0046    4.9721    0.0000 C   0  0  0  0  0  0  0  0  0  0  0  0
   -0.8899    3.9684    0.0000 C   0  0  0  0  0  0  0  0  0  0  0  0
    0.5773    4.2803    0.0000 C   0  0  0  0  0  0  0  0  0  0  0  0
    1.5810    3.1655    0.0000 C   0  0  0  0  0  0  0  0  0  0  0  0
    3.0482    3.4774    0.0000 C   0  0  0  0  0  0  0  0  0  0  0  0
    4.0519    2.3627    0.0000 F   0  0  0  0  0  0  0  0  0  0  0  0
    3.5118    4.9040    0.0000 C   0  0  0  0  0  0  0  0  0  0  0  0
    2.5081    6.0187    0.0000 C   0  0  0  0  0  0  0  0  0  0  0  0
    1.0409    5.7068    0.0000 C   0  0  0  0  0  0  0  0  0  0  0  0
    0.0372    6.8216    0.0000 F   0  0  0  0  0  0  0  0  0  0  0  0
   -1.5000    0.0000    0.0000 N   0  0  0  0  0  0  0  0  0  0  0  0
   -0.7500   -1.2990    0.0000 N   0  0  0  0  0  0  0  0  0  0  0  0
   -3.5757   -7.5908    0.0000 C   0  0  0  0  0  0  0  0  0  0  0  0
   -3.8876   -9.0580    0.0000 C   0  0  0  0  0  0  0  0  0  0  0  0
  1  2  1  0
  2  3  1  0
  3  4  2  0
  4  5  1  0
  5  6  2  0
  6  7  1  0
  7  8  1  0
  8  9  2  0
  8 10  1  0
 10 11  1  0
 11 12  2  0
 12 13  1  0
 13 14  2  0
 14 15  1  0
 15 16  2  0
 16 17  1  0
 17 18  1  0
 18 19  1  0
 19 20  1  0
 20 21  1  0
 21 22  1  0
 22 23  1  6
 23 24  2  0
 24 25  1  0
 25 26  1  0
 25 27  2  0
 27 28  1  0
 28 29  2  0
 29 30  1  0
 17 31  2  0
 31 32  1  0
  6 33  1  0
 33 34  2  0
 34  3  1  0
 32 11  1  0
 32 14  1  0
 22 18  1  0
 29 23  1  0
M  END
>  <Compound_ID>  (181) 
CHEMBL4114623

>  <Molecule Name>  (181) 
nan

>  <Molecular Weight>  (181) 
464.48

>  <AlogP>  (181) 
5.0

>  <Smiles>  (181) 
COc1ccc(NC(=O)Nc2cnc3ccc(N4CCC[C@@H]4c4cc(F)ccc4F)nn23)cc1

>  <Standard Type>  (181) 
IC50

>  <Standard Relation>  (181) 
'='

>  <Standard Units>  (181) 
nM

>  <Standard Value>  (181) 
5.5

>  <Assay ChEMBL ID>  (181) 
CHEMBL3887826

>  <Assay Description>  (181) 
ELISA Assay: An enzyme-linked immunosorbant assay (ELISA) was used to assess TrkA kinase activity in the presence of inhibitors. Immulon 4HBX 384-well microtiter plates (Thermo part #8755) were coated with a 0.025 mg/mL solution of poly (Glu, Ala, Tyr; 6:3:1; Sigma P3899). Various concentrations of test compound, 2.5 nM TrkA (Invitrogen Corp., histidine-tagged recombinant human TrkA, cytoplasmic domain), and 500 uM ATP were incubated for 25 minutes at ambient temperature in the coated plates while shaking. The assay buffer consisted of 25 mM MOPS pH 7.5, 0.005% (v/v) Triton X-100 and 5 mM MgCl2. The reaction mixture was removed from the plate by washing with PBS containing 0.1% (v/v) Tween 20. The phosphorylated reaction product was detected using 0.2 ug/mL of a phosphotyrosine specific monoclonal antibody (clone PY20) conjugated to horseradish peroxidase in conjunction with the TMB Peroxidase Substrate System (KPL).

>  <BAO Format ID>  (181) 
BAO_0000357

>  <BAO Label>  (181) 
single protein format

>  <Assay Organism>  (181) 
None

>  <Target ChEMBL ID>  (181) 
CHEMBL2815

>  <Target Name>  (181) 
Nerve growth factor receptor Trk-A

>  <Target Organism>  (181) 
Homo sapiens

>  <Target Type>  (181) 
SINGLE PROTEIN

>  <Document ChEMBL ID>  (181) 
CHEMBL3886465

>  <Source Description>  (181) 
BindingDB Database

>  <Document Journal>  (181) 
nan

>  <Document Year>  (181) 
2016.0

>  <Active>  (181) 
1.0

>  <bits>  (181) 
<rdkit.DataStructs.cDataStructs.ExplicitBitVect object at 0x00000159F60378B0>

>  <Group>  (181) 
G2

$$$$

     RDKit          2D

 39 43  0  0  0  0  0  0  0  0999 V2000
   -8.0346   -3.5760    0.0000 C   0  0  0  0  0  0  0  0  0  0  0  0
   -6.9199   -4.5797    0.0000 C   0  0  0  0  0  0  0  0  0  0  0  0
   -5.4933   -4.1162    0.0000 C   0  0  0  0  0  0  0  0  0  0  0  0
   -4.3786   -5.1199    0.0000 N   0  0  0  0  0  0  0  0  0  0  0  0
   -2.9520   -4.6564    0.0000 C   0  0  0  0  0  0  0  0  0  0  0  0
   -1.8373   -5.6601    0.0000 O   0  0  0  0  0  0  0  0  0  0  0  0
   -2.6401   -3.1891    0.0000 N   0  0  0  0  0  0  0  0  0  0  0  0
   -1.2135   -2.7256    0.0000 C   0  0  0  0  0  0  0  0  0  0  0  0
   -0.0000   -3.6073    0.0000 C   0  0  0  0  0  0  0  0  0  0  0  0
    1.2135   -2.7256    0.0000 N   0  0  0  0  0  0  0  0  0  0  0  0
    0.7500   -1.2990    0.0000 N   0  0  0  0  0  0  0  0  0  0  0  0
    1.5000    0.0000    0.0000 C   0  0  0  0  0  0  0  0  0  0  0  0
    0.7500    1.2990    0.0000 C   0  0  0  0  0  0  0  0  0  0  0  0
   -0.7500    1.2990    0.0000 C   0  0  0  0  0  0  0  0  0  0  0  0
   -1.5000    2.5981    0.0000 N   0  0  0  0  0  0  0  0  0  0  0  0
   -2.9918    2.7549    0.0000 C   0  0  0  0  0  0  0  0  0  0  0  0
   -3.3037    4.2221    0.0000 C   0  0  0  0  0  0  0  0  0  0  0  0
   -2.0046    4.9721    0.0000 C   0  0  0  0  0  0  0  0  0  0  0  0
   -0.8899    3.9684    0.0000 C   0  0  0  0  0  0  0  0  0  0  0  0
    0.5773    4.2803    0.0000 C   0  0  0  0  0  0  0  0  0  0  0  0
    1.5810    3.1655    0.0000 C   0  0  0  0  0  0  0  0  0  0  0  0
    3.0482    3.4774    0.0000 C   0  0  0  0  0  0  0  0  0  0  0  0
    4.0519    2.3627    0.0000 F   0  0  0  0  0  0  0  0  0  0  0  0
    3.5118    4.9040    0.0000 C   0  0  0  0  0  0  0  0  0  0  0  0
    2.5081    6.0187    0.0000 C   0  0  0  0  0  0  0  0  0  0  0  0
    1.0409    5.7068    0.0000 C   0  0  0  0  0  0  0  0  0  0  0  0
    0.0372    6.8216    0.0000 Cl  0  0  0  0  0  0  0  0  0  0  0  0
   -1.5000    0.0000    0.0000 N   0  0  0  0  0  0  0  0  0  0  0  0
   -0.7500   -1.2990    0.0000 C   0  0  0  0  0  0  0  0  0  0  0  0
   -4.6904   -6.5871    0.0000 C   0  0  0  0  0  0  0  0  0  0  0  0
   -6.1170   -7.0506    0.0000 C   0  0  0  0  0  0  0  0  0  0  0  0
   -7.2317   -6.0469    0.0000 N   0  0  0  0  0  0  0  0  0  0  0  0
   -8.6583   -6.5105    0.0000 C   0  0  0  0  0  0  0  0  0  0  0  0
   -9.7730   -5.5068    0.0000 O   0  0  0  0  0  0  0  0  0  0  0  0
   -8.9702   -7.9777    0.0000 O   0  0  0  0  0  0  0  0  0  0  0  0
  -10.3968   -8.4412    0.0000 C   0  0  0  0  0  0  0  0  0  0  0  0
   -9.9332   -9.8678    0.0000 C   0  0  0  0  0  0  0  0  0  0  0  0
  -10.8603   -7.0146    0.0000 C   0  0  0  0  0  0  0  0  0  0  0  0
  -11.8234   -8.9047    0.0000 C   0  0  0  0  0  0  0  0  0  0  0  0
  2  1  1  1
  2  3  1  0
  3  4  1  0
  4  5  1  0
  5  6  2  0
  5  7  1  0
  7  8  1  0
  8  9  1  0
  9 10  2  0
 10 11  1  0
 11 12  1  0
 12 13  2  0
 13 14  1  0
 14 15  1  0
 15 16  1  0
 16 17  1  0
 17 18  1  0
 18 19  1  0
 19 20  1  6
 20 21  2  0
 21 22  1  0
 22 23  1  0
 22 24  2  0
 24 25  1  0
 25 26  2  0
 26 27  1  0
 14 28  2  0
 28 29  1  0
  4 30  1  0
 30 31  1  0
 31 32  1  0
 32 33  1  0
 33 34  2  0
 33 35  1  0
 35 36  1  0
 36 37  1  0
 36 38  1  0
 36 39  1  0
 32  2  1  0
 29  8  2  0
 29 11  1  0
 19 15  1  0
 26 20  1  0
M  END
>  <Compound_ID>  (182) 
CHEMBL3939755

>  <Molecule Name>  (182) 
nan

>  <Molecular Weight>  (182) 
558.06

>  <AlogP>  (182) 
5.34

>  <Smiles>  (182) 
C[C@H]1CN(C(=O)Nc2cnn3ccc(N4CCC[C@@H]4c4cc(F)ccc4Cl)nc23)CCN1C(=O)OC(C)(C)C

>  <Standard Type>  (182) 
IC50

>  <Standard Relation>  (182) 
'='

>  <Standard Units>  (182) 
nM

>  <Standard Value>  (182) 
55.0

>  <Assay ChEMBL ID>  (182) 
CHEMBL3887076

>  <Assay Description>  (182) 
ELISA Assay: An enzyme-linked immunosorbant assay (ELISA) was used to assess TrkA kinase activity in the presence of inhibitors. Immulon 4HBX 384-well microtiter plates (Thermo part #8755) were coated with a 0.025 mg/mL solution of poly (Glu, Ala, Tyr; 6:3:1; Sigma P3899). Various concentrations of test compound, 2.5 nM TrkA (Invitrogen Corp., histidine-tagged recombinant human TrkA, cytoplasmic domain), and 500 uM ATP were incubated for 25 minutes at ambient temperature in the coated plates while shaking. The assay buffer consisted of 25 mM MOPS pH 7.5, 0.005% (v/v) Triton X-100 and 5 mM MgCl2. The reaction mixture was removed from the plate by washing with PBS containing 0.1% (v/v) Tween 20. The phosphorylated reaction product was detected using 0.2 ug/mL of a phosphotyrosine specific monoclonal antibody (clone PY20) conjugated to horseradish peroxidase in conjunction with the TMB Peroxidase Substrate System (KPL).

>  <BAO Format ID>  (182) 
BAO_0000357

>  <BAO Label>  (182) 
single protein format

>  <Assay Organism>  (182) 
None

>  <Target ChEMBL ID>  (182) 
CHEMBL2815

>  <Target Name>  (182) 
Nerve growth factor receptor Trk-A

>  <Target Organism>  (182) 
Homo sapiens

>  <Target Type>  (182) 
SINGLE PROTEIN

>  <Document ChEMBL ID>  (182) 
CHEMBL3886151

>  <Source Description>  (182) 
BindingDB Database

>  <Document Journal>  (182) 
nan

>  <Document Year>  (182) 
2014.0

>  <Active>  (182) 
1.0

>  <bits>  (182) 
<rdkit.DataStructs.cDataStructs.ExplicitBitVect object at 0x00000159F6034190>

>  <Group>  (182) 
G2

$$$$

     RDKit          2D

 26 29  0  0  0  0  0  0  0  0999 V2000
   -4.3786   -5.1199    0.0000 C   0  0  0  0  0  0  0  0  0  0  0  0
   -2.9520   -4.6564    0.0000 N   0  0  0  0  0  0  0  0  0  0  0  0
   -2.6401   -3.1891    0.0000 C   0  0  0  0  0  0  0  0  0  0  0  0
   -3.7548   -2.1855    0.0000 O   0  0  0  0  0  0  0  0  0  0  0  0
   -1.2135   -2.7256    0.0000 C   0  0  0  0  0  0  0  0  0  0  0  0
   -0.0000   -3.6073    0.0000 C   0  0  0  0  0  0  0  0  0  0  0  0
    1.2135   -2.7256    0.0000 N   0  0  0  0  0  0  0  0  0  0  0  0
    0.7500   -1.2990    0.0000 N   0  0  0  0  0  0  0  0  0  0  0  0
    1.5000    0.0000    0.0000 C   0  0  0  0  0  0  0  0  0  0  0  0
    0.7500    1.2990    0.0000 C   0  0  0  0  0  0  0  0  0  0  0  0
   -0.7500    1.2990    0.0000 C   0  0  0  0  0  0  0  0  0  0  0  0
   -1.5000    2.5981    0.0000 N   0  0  0  0  0  0  0  0  0  0  0  0
   -2.9918    2.7549    0.0000 C   0  0  0  0  0  0  0  0  0  0  0  0
   -3.3037    4.2221    0.0000 C   0  0  0  0  0  0  0  0  0  0  0  0
   -2.0046    4.9721    0.0000 C   0  0  0  0  0  0  0  0  0  0  0  0
   -0.8899    3.9684    0.0000 C   0  0  0  0  0  0  0  0  0  0  0  0
    0.5773    4.2803    0.0000 C   0  0  0  0  0  0  0  0  0  0  0  0
    1.5810    3.1655    0.0000 C   0  0  0  0  0  0  0  0  0  0  0  0
    3.0482    3.4774    0.0000 C   0  0  0  0  0  0  0  0  0  0  0  0
    4.0519    2.3627    0.0000 F   0  0  0  0  0  0  0  0  0  0  0  0
    3.5118    4.9040    0.0000 C   0  0  0  0  0  0  0  0  0  0  0  0
    2.5081    6.0187    0.0000 N   0  0  0  0  0  0  0  0  0  0  0  0
    1.0409    5.7068    0.0000 C   0  0  0  0  0  0  0  0  0  0  0  0
    0.0372    6.8216    0.0000 C   0  0  0  0  0  0  0  0  0  0  0  0
   -1.5000    0.0000    0.0000 N   0  0  0  0  0  0  0  0  0  0  0  0
   -0.7500   -1.2990    0.0000 C   0  0  0  0  0  0  0  0  0  0  0  0
  1  2  1  0
  2  3  1  0
  3  4  2  0
  3  5  1  0
  5  6  1  0
  6  7  2  0
  7  8  1  0
  8  9  1  0
  9 10  2  0
 10 11  1  0
 11 12  1  0
 12 13  1  0
 13 14  1  0
 14 15  1  0
 15 16  1  0
 16 17  1  6
 17 18  2  0
 18 19  1  0
 19 20  1  0
 19 21  2  0
 21 22  1  0
 22 23  2  0
 23 24  1  0
 11 25  2  0
 25 26  1  0
 26  5  2  0
 26  8  1  0
 16 12  1  0
 23 17  1  0
M  END
>  <Compound_ID>  (183) 
CHEMBL3676054

>  <Molecule Name>  (183) 
nan

>  <Molecular Weight>  (183) 
354.39

>  <AlogP>  (183) 
2.27

>  <Smiles>  (183) 
CNC(=O)c1cnn2ccc(N3CCC[C@@H]3c3cc(F)cnc3C)nc12

>  <Standard Type>  (183) 
IC50

>  <Standard Relation>  (183) 
'='

>  <Standard Units>  (183) 
nM

>  <Standard Value>  (183) 
57.1

>  <Assay ChEMBL ID>  (183) 
CHEMBL3887070

>  <Assay Description>  (183) 
ELISA Assay: An enzyme-linked immunosorbant assay (ELISA) was used to assess TrkA kinase activity in the presence of inhibitors. Immulon 4HBX 384-well microtiter plates (Thermo part #8755) were coated with a 0.025 mg/mL solution of poly (Glu, Ala, Tyr; 6:3:1; Sigma P3899). Various concentrations of test compound, 2.5 nM TrkA (Invitrogen Corp., histidine-tagged recombinant human TrkA, cytoplasmic domain), and 500 uM ATP were incubated for 25 minutes at ambient temperature in the coated plates while shaking The assay buffer consisted of 25 mM MOPS pH 7.5, 0.005% (v/v) Triton X-100 and 5 mM MgCl2. The reaction mixture was removed from the plate by washing with PBS containing 0.1% (v/v) Tween 20. The phosphorylated reaction product was detected using 0.2 ug/mL of a phosphotyrosine specific monoclonal antibody (clone PY20) conjugated to horseradish peroxidase in conjunction with the TMB Peroxidase Substrate System (KPL).

>  <BAO Format ID>  (183) 
BAO_0000357

>  <BAO Label>  (183) 
single protein format

>  <Assay Organism>  (183) 
None

>  <Target ChEMBL ID>  (183) 
CHEMBL2815

>  <Target Name>  (183) 
Nerve growth factor receptor Trk-A

>  <Target Organism>  (183) 
Homo sapiens

>  <Target Type>  (183) 
SINGLE PROTEIN

>  <Document ChEMBL ID>  (183) 
CHEMBL3638907

>  <Source Description>  (183) 
BindingDB Database

>  <Document Journal>  (183) 
nan

>  <Document Year>  (183) 
2014.0

>  <Active>  (183) 
1.0

>  <bits>  (183) 
<rdkit.DataStructs.cDataStructs.ExplicitBitVect object at 0x00000159F60366C0>

>  <Group>  (183) 
G2

$$$$

     RDKit          2D

 32 36  0  0  0  0  0  0  0  0999 V2000
   -2.9520   -4.6564    0.0000 C   0  0  0  0  0  0  0  0  0  0  0  0
   -2.6401   -3.1891    0.0000 C   0  0  0  0  0  0  0  0  0  0  0  0
   -3.7548   -2.1855    0.0000 C   0  0  0  0  0  0  0  0  0  0  0  0
   -1.2135   -2.7256    0.0000 N   0  0  0  0  0  0  0  0  0  0  0  0
   -0.0000   -3.6073    0.0000 C   0  0  0  0  0  0  0  0  0  0  0  0
    1.2135   -2.7256    0.0000 C   0  0  0  0  0  0  0  0  0  0  0  0
    2.6401   -3.1891    0.0000 C   0  0  0  0  0  0  0  0  0  0  0  0
    3.7548   -2.1855    0.0000 O   0  0  0  0  0  0  0  0  0  0  0  0
    2.9520   -4.6564    0.0000 C   0  0  0  0  0  0  0  0  0  0  0  0
    1.8373   -5.6601    0.0000 C   0  0  0  0  0  0  0  0  0  0  0  0
    2.1491   -7.1273    0.0000 C   0  0  0  0  0  0  0  0  0  0  0  0
    3.5757   -7.5908    0.0000 N   0  0  0  0  0  0  0  0  0  0  0  0
    4.6904   -6.5871    0.0000 C   0  0  0  0  0  0  0  0  0  0  0  0
    6.1170   -7.0506    0.0000 N   0  0  0  0  0  0  0  0  0  0  0  0
    6.4289   -8.5179    0.0000 C   0  0  0  0  0  0  0  0  0  0  0  0
    5.3142   -9.5216    0.0000 O   0  0  0  0  0  0  0  0  0  0  0  0
    7.8555   -8.9814    0.0000 C   0  0  0  0  0  0  0  0  0  0  0  0
    8.1673  -10.4486    0.0000 C   0  0  0  0  0  0  0  0  0  0  0  0
    9.5377  -11.0587    0.0000 C   0  0  0  0  0  0  0  0  0  0  0  0
    9.3809  -12.5505    0.0000 O   0  0  0  0  0  0  0  0  0  0  0  0
    7.9136  -12.8624    0.0000 C   0  0  0  0  0  0  0  0  0  0  0  0
    7.3035  -14.2327    0.0000 C   0  0  0  0  0  0  0  0  0  0  0  0
    7.4603  -15.7245    0.0000 C   0  0  0  0  0  0  0  0  0  0  0  0
    6.0900  -15.1144    0.0000 C   0  0  0  0  0  0  0  0  0  0  0  0
    7.1636  -11.5633    0.0000 N   0  0  0  0  0  0  0  0  0  0  0  0
    4.3786   -5.1199    0.0000 C   0  0  0  0  0  0  0  0  0  0  0  0
    0.7500   -1.2990    0.0000 C   0  0  0  0  0  0  0  0  0  0  0  0
    1.5000    0.0000    0.0000 C   0  0  0  0  0  0  0  0  0  0  0  0
    0.7500    1.2990    0.0000 N   0  0  0  0  0  0  0  0  0  0  0  0
   -0.7500    1.2990    0.0000 C   0  0  0  0  0  0  0  0  0  0  0  0
   -1.5000    0.0000    0.0000 C   0  0  0  0  0  0  0  0  0  0  0  0
   -0.7500   -1.2990    0.0000 C   0  0  0  0  0  0  0  0  0  0  0  0
  1  2  1  0
  2  3  1  0
  2  4  1  0
  4  5  1  0
  5  6  2  0
  6  7  1  0
  7  8  2  0
  7  9  1  0
  9 10  2  0
 10 11  1  0
 11 12  2  0
 12 13  1  0
 13 14  1  0
 14 15  1  0
 15 16  2  0
 15 17  1  0
 17 18  1  0
 18 19  2  0
 19 20  1  0
 20 21  1  0
 21 22  1  0
 22 23  1  0
 23 24  1  0
 21 25  2  0
 13 26  2  0
  6 27  1  0
 27 28  2  0
 28 29  1  0
 29 30  2  0
 30 31  1  0
 31 32  2  0
 32  4  1  0
 26  9  1  0
 32 27  1  0
 25 18  1  0
 24 22  1  0
M  END
>  <Compound_ID>  (184) 
CHEMBL3980280

>  <Molecule Name>  (184) 
nan

>  <Molecular Weight>  (184) 
429.48

>  <AlogP>  (184) 
4.29

>  <Smiles>  (184) 
CC(C)n1cc(C(=O)c2ccnc(NC(=O)Cc3coc(C4CC4)n3)c2)c2cnccc21

>  <Standard Type>  (184) 
IC50

>  <Standard Relation>  (184) 
'='

>  <Standard Units>  (184) 
nM

>  <Standard Value>  (184) 
13.6

>  <Assay ChEMBL ID>  (184) 
CHEMBL3887111

>  <Assay Description>  (184) 
HTRF Assay: Isolated TRK Enzyme assays use the HTRF KinEASE-TK kit (Cisbio Cat#62TK0PEJ) with recombinant His-tagged cytoplasmic domains of each TRK receptor sourced from Invitrogen (see table below). This activity-assay measures the phosphorylation of tyrosine residues within a substrate from the HTRF kit which has been validated by Cisbio for a variety of tyrosine kinases including the TRK receptors.Assay Details: Invitrogen Amino FAC FAC Assay ReactionTarget Cat# acids enzyme ATP TimeTRKA PV3144 aa 441-4 nM 40 uM 35 min (NTRK1) 796 TRKB PV3616 aa 526-1 nM 1.4 uM 40 min (NTRK2) 838 TRKC PV3617 aa 510- 10 nM 15 uM 30 min (NTRK3) 8250.5 mM stock solutions of test compounds are prepared and serially diluted in 100% DMSO. A standard curve using the compound of Example 135 disclosed in WO2005/116035 of 150 uM is also prepared on each test plate. High percentage effect (HPE) is defined by 150 uM.

>  <BAO Format ID>  (184) 
BAO_0000357

>  <BAO Label>  (184) 
single protein format

>  <Assay Organism>  (184) 
None

>  <Target ChEMBL ID>  (184) 
CHEMBL2815

>  <Target Name>  (184) 
Nerve growth factor receptor Trk-A

>  <Target Organism>  (184) 
Homo sapiens

>  <Target Type>  (184) 
SINGLE PROTEIN

>  <Document ChEMBL ID>  (184) 
CHEMBL3886170

>  <Source Description>  (184) 
BindingDB Database

>  <Document Journal>  (184) 
nan

>  <Document Year>  (184) 
2015.0

>  <Active>  (184) 
1.0

>  <bits>  (184) 
<rdkit.DataStructs.cDataStructs.ExplicitBitVect object at 0x00000159F6035D20>

>  <Group>  (184) 
G2

$$$$

     RDKit          2D

 32 35  0  0  0  0  0  0  0  0999 V2000
   -2.6401   -3.1891    0.0000 C   0  0  0  0  0  0  0  0  0  0  0  0
   -1.2135   -2.7256    0.0000 N   0  0  0  0  0  0  0  0  0  0  0  0
   -0.0000   -3.6073    0.0000 C   0  0  0  0  0  0  0  0  0  0  0  0
    1.2135   -2.7256    0.0000 C   0  0  0  0  0  0  0  0  0  0  0  0
    2.6401   -3.1891    0.0000 C   0  0  0  0  0  0  0  0  0  0  0  0
    3.7548   -2.1855    0.0000 O   0  0  0  0  0  0  0  0  0  0  0  0
    2.9520   -4.6564    0.0000 C   0  0  0  0  0  0  0  0  0  0  0  0
    1.8373   -5.6601    0.0000 C   0  0  0  0  0  0  0  0  0  0  0  0
    2.1491   -7.1273    0.0000 N   0  0  0  0  0  0  0  0  0  0  0  0
    3.5757   -7.5908    0.0000 C   0  0  0  0  0  0  0  0  0  0  0  0
    4.6904   -6.5871    0.0000 C   0  0  0  0  0  0  0  0  0  0  0  0
    6.1170   -7.0506    0.0000 N   0  0  0  0  0  0  0  0  0  0  0  0
    6.4289   -8.5179    0.0000 C   0  0  0  0  0  0  0  0  0  0  0  0
    5.3142   -9.5216    0.0000 O   0  0  0  0  0  0  0  0  0  0  0  0
    7.8555   -8.9814    0.0000 N   0  0  0  0  0  0  0  0  0  0  0  0
    8.1673  -10.4486    0.0000 C   0  0  0  0  0  0  0  0  0  0  0  0
    7.0526  -11.4523    0.0000 C   0  0  0  0  0  0  0  0  0  0  0  0
    7.3645  -12.9195    0.0000 C   0  0  0  0  0  0  0  0  0  0  0  0
    8.7911  -13.3831    0.0000 C   0  0  0  0  0  0  0  0  0  0  0  0
    9.9058  -12.3794    0.0000 C   0  0  0  0  0  0  0  0  0  0  0  0
   11.3324  -12.8429    0.0000 C   0  0  0  0  0  0  0  0  0  0  0  0
   12.7590  -13.3064    0.0000 F   0  0  0  0  0  0  0  0  0  0  0  0
   10.8688  -14.2695    0.0000 F   0  0  0  0  0  0  0  0  0  0  0  0
   11.7959  -11.4163    0.0000 F   0  0  0  0  0  0  0  0  0  0  0  0
    9.5939  -10.9121    0.0000 C   0  0  0  0  0  0  0  0  0  0  0  0
    4.3786   -5.1199    0.0000 C   0  0  0  0  0  0  0  0  0  0  0  0
    0.7500   -1.2990    0.0000 C   0  0  0  0  0  0  0  0  0  0  0  0
    1.5000    0.0000    0.0000 C   0  0  0  0  0  0  0  0  0  0  0  0
    0.7500    1.2990    0.0000 N   0  0  0  0  0  0  0  0  0  0  0  0
   -0.7500    1.2990    0.0000 C   0  0  0  0  0  0  0  0  0  0  0  0
   -1.5000    0.0000    0.0000 N   0  0  0  0  0  0  0  0  0  0  0  0
   -0.7500   -1.2990    0.0000 C   0  0  0  0  0  0  0  0  0  0  0  0
  1  2  1  0
  2  3  1  0
  3  4  2  0
  4  5  1  0
  5  6  2  0
  5  7  1  0
  7  8  2  0
  8  9  1  0
  9 10  2  0
 10 11  1  0
 11 12  1  0
 12 13  1  0
 13 14  2  0
 13 15  1  0
 15 16  1  0
 16 17  2  0
 17 18  1  0
 18 19  2  0
 19 20  1  0
 20 21  1  0
 21 22  1  0
 21 23  1  0
 21 24  1  0
 20 25  2  0
 11 26  2  0
  4 27  1  0
 27 28  2  0
 28 29  1  0
 29 30  2  0
 30 31  1  0
 31 32  2  0
 32  2  1  0
 26  7  1  0
 32 27  1  0
 25 16  1  0
M  END
>  <Compound_ID>  (185) 
CHEMBL3666294

>  <Molecule Name>  (185) 
nan

>  <Molecular Weight>  (185) 
440.39

>  <AlogP>  (185) 
4.26

>  <Smiles>  (185) 
Cn1cc(C(=O)c2cncc(NC(=O)Nc3cccc(C(F)(F)F)c3)c2)c2cncnc21

>  <Standard Type>  (185) 
IC50

>  <Standard Relation>  (185) 
'='

>  <Standard Units>  (185) 
nM

>  <Standard Value>  (185) 
31.9

>  <Assay ChEMBL ID>  (185) 
CHEMBL3887033

>  <Assay Description>  (185) 
Enzyme Assay: Isolated TRK Enzyme assays use the HTRF KinEASE-TK kit (Cisbio Cat# 62TK0PEJ) with recombinant His-tagged cytoplasmic domains of each TRK receptor sourced from Invitrogen (see table below). This activity-assay measures the phosphorylation of tyrosine residues within a substrate from the HTRF kit which has been validated by Cisbio for a variety of tyrosine kinases including the TRK receptors. Assay details: Target:TRKA; Invitrogen Cat# PV3144; Amino acids:aa 441-796; FAC enzyme:4nM; FAC ATP:40uM; Assay Reaction Time:35min.

>  <BAO Format ID>  (185) 
BAO_0000357

>  <BAO Label>  (185) 
single protein format

>  <Assay Organism>  (185) 
None

>  <Target ChEMBL ID>  (185) 
CHEMBL2815

>  <Target Name>  (185) 
Nerve growth factor receptor Trk-A

>  <Target Organism>  (185) 
Homo sapiens

>  <Target Type>  (185) 
SINGLE PROTEIN

>  <Document ChEMBL ID>  (185) 
CHEMBL3639348

>  <Source Description>  (185) 
BindingDB Database

>  <Document Journal>  (185) 
nan

>  <Document Year>  (185) 
2014.0

>  <Active>  (185) 
1.0

>  <bits>  (185) 
<rdkit.DataStructs.cDataStructs.ExplicitBitVect object at 0x00000159F6034820>

>  <Group>  (185) 
G2

$$$$

     RDKit          2D

 32 35  0  0  0  0  0  0  0  0999 V2000
   -2.9520   -4.6564    0.0000 C   0  0  0  0  0  0  0  0  0  0  0  0
   -2.6401   -3.1891    0.0000 C   0  0  0  0  0  0  0  0  0  0  0  0
   -3.7548   -2.1855    0.0000 C   0  0  0  0  0  0  0  0  0  0  0  0
   -5.1814   -2.6490    0.0000 O   0  0  0  0  0  0  0  0  0  0  0  0
   -1.2135   -2.7256    0.0000 N   0  0  0  0  0  0  0  0  0  0  0  0
   -0.0000   -3.6073    0.0000 C   0  0  0  0  0  0  0  0  0  0  0  0
    1.2135   -2.7256    0.0000 C   0  0  0  0  0  0  0  0  0  0  0  0
    2.6401   -3.1891    0.0000 C   0  0  0  0  0  0  0  0  0  0  0  0
    3.7548   -2.1855    0.0000 O   0  0  0  0  0  0  0  0  0  0  0  0
    2.9520   -4.6564    0.0000 C   0  0  0  0  0  0  0  0  0  0  0  0
    1.8373   -5.6601    0.0000 C   0  0  0  0  0  0  0  0  0  0  0  0
    2.1491   -7.1273    0.0000 C   0  0  0  0  0  0  0  0  0  0  0  0
    1.0344   -8.1310    0.0000 N   0  0  0  0  0  0  0  0  0  0  0  0
   -0.3922   -7.6675    0.0000 C   0  0  0  0  0  0  0  0  0  0  0  0
   -0.7040   -6.2002    0.0000 O   0  0  0  0  0  0  0  0  0  0  0  0
   -1.5069   -8.6712    0.0000 C   0  0  0  0  0  0  0  0  0  0  0  0
   -2.9335   -8.2076    0.0000 C   0  0  0  0  0  0  0  0  0  0  0  0
   -3.2453   -6.7404    0.0000 C   0  0  0  0  0  0  0  0  0  0  0  0
   -4.6719   -6.2769    0.0000 C   0  0  0  0  0  0  0  0  0  0  0  0
   -5.7866   -7.2806    0.0000 C   0  0  0  0  0  0  0  0  0  0  0  0
   -7.2132   -6.8171    0.0000 Cl  0  0  0  0  0  0  0  0  0  0  0  0
   -5.4748   -8.7478    0.0000 C   0  0  0  0  0  0  0  0  0  0  0  0
   -4.0482   -9.2113    0.0000 N   0  0  0  0  0  0  0  0  0  0  0  0
    3.5757   -7.5908    0.0000 C   0  0  0  0  0  0  0  0  0  0  0  0
    4.6904   -6.5871    0.0000 C   0  0  0  0  0  0  0  0  0  0  0  0
    4.3786   -5.1199    0.0000 N   0  0  0  0  0  0  0  0  0  0  0  0
    0.7500   -1.2990    0.0000 C   0  0  0  0  0  0  0  0  0  0  0  0
    1.5000    0.0000    0.0000 C   0  0  0  0  0  0  0  0  0  0  0  0
    0.7500    1.2990    0.0000 N   0  0  0  0  0  0  0  0  0  0  0  0
   -0.7500    1.2990    0.0000 C   0  0  0  0  0  0  0  0  0  0  0  0
   -1.5000    0.0000    0.0000 C   0  0  0  0  0  0  0  0  0  0  0  0
   -0.7500   -1.2990    0.0000 C   0  0  0  0  0  0  0  0  0  0  0  0
  1  2  1  0
  2  3  1  0
  3  4  1  0
  2  5  1  0
  5  6  1  0
  6  7  2  0
  7  8  1  0
  8  9  2  0
  8 10  1  0
 10 11  2  0
 11 12  1  0
 12 13  1  0
 13 14  1  0
 14 15  2  0
 14 16  1  0
 16 17  1  0
 17 18  2  0
 18 19  1  0
 19 20  2  0
 20 21  1  0
 20 22  1  0
 22 23  2  0
 12 24  2  0
 24 25  1  0
 25 26  2  0
  7 27  1  0
 27 28  2  0
 28 29  1  0
 29 30  2  0
 30 31  1  0
 31 32  2  0
 32  5  1  0
 26 10  1  0
 32 27  1  0
 23 17  1  0
M  END
>  <Compound_ID>  (186) 
CHEMBL3940990

>  <Molecule Name>  (186) 
nan

>  <Molecular Weight>  (186) 
449.9

>  <AlogP>  (186) 
3.45

>  <Smiles>  (186) 
CC(CO)n1cc(C(=O)c2cc(NC(=O)Cc3ccc(Cl)cn3)ccn2)c2cnccc21

>  <Standard Type>  (186) 
IC50

>  <Standard Relation>  (186) 
'='

>  <Standard Units>  (186) 
nM

>  <Standard Value>  (186) 
93.2

>  <Assay ChEMBL ID>  (186) 
CHEMBL3887111

>  <Assay Description>  (186) 
HTRF Assay: Isolated TRK Enzyme assays use the HTRF KinEASE-TK kit (Cisbio Cat#62TK0PEJ) with recombinant His-tagged cytoplasmic domains of each TRK receptor sourced from Invitrogen (see table below). This activity-assay measures the phosphorylation of tyrosine residues within a substrate from the HTRF kit which has been validated by Cisbio for a variety of tyrosine kinases including the TRK receptors.Assay Details: Invitrogen Amino FAC FAC Assay ReactionTarget Cat# acids enzyme ATP TimeTRKA PV3144 aa 441-4 nM 40 uM 35 min (NTRK1) 796 TRKB PV3616 aa 526-1 nM 1.4 uM 40 min (NTRK2) 838 TRKC PV3617 aa 510- 10 nM 15 uM 30 min (NTRK3) 8250.5 mM stock solutions of test compounds are prepared and serially diluted in 100% DMSO. A standard curve using the compound of Example 135 disclosed in WO2005/116035 of 150 uM is also prepared on each test plate. High percentage effect (HPE) is defined by 150 uM.

>  <BAO Format ID>  (186) 
BAO_0000357

>  <BAO Label>  (186) 
single protein format

>  <Assay Organism>  (186) 
None

>  <Target ChEMBL ID>  (186) 
CHEMBL2815

>  <Target Name>  (186) 
Nerve growth factor receptor Trk-A

>  <Target Organism>  (186) 
Homo sapiens

>  <Target Type>  (186) 
SINGLE PROTEIN

>  <Document ChEMBL ID>  (186) 
CHEMBL3886170

>  <Source Description>  (186) 
BindingDB Database

>  <Document Journal>  (186) 
nan

>  <Document Year>  (186) 
2015.0

>  <Active>  (186) 
1.0

>  <bits>  (186) 
<rdkit.DataStructs.cDataStructs.ExplicitBitVect object at 0x00000159F6036E30>

>  <Group>  (186) 
G2

$$$$

     RDKit          2D

 36 40  0  0  0  0  0  0  0  0999 V2000
   -2.7729  -10.0617    0.0000 O   0  0  0  0  0  0  0  0  0  0  0  0
   -1.3463   -9.5982    0.0000 C   0  0  0  0  0  0  0  0  0  0  0  0
   -0.2316  -10.6019    0.0000 C   0  0  0  0  0  0  0  0  0  0  0  0
   -0.5434  -12.0691    0.0000 C   0  0  0  0  0  0  0  0  0  0  0  0
   -1.9700  -12.5326    0.0000 C   0  0  0  0  0  0  0  0  0  0  0  0
   -2.2819  -13.9999    0.0000 C   0  0  0  0  0  0  0  0  0  0  0  0
   -1.1672  -15.0036    0.0000 C   0  0  0  0  0  0  0  0  0  0  0  0
    0.2594  -14.5400    0.0000 C   0  0  0  0  0  0  0  0  0  0  0  0
    1.3741  -15.5437    0.0000 O   0  0  0  0  0  0  0  0  0  0  0  0
    1.0623  -17.0110    0.0000 C   0  0  0  0  0  0  0  0  0  0  0  0
    0.7504  -18.4782    0.0000 F   0  0  0  0  0  0  0  0  0  0  0  0
    2.5295  -17.3228    0.0000 F   0  0  0  0  0  0  0  0  0  0  0  0
   -0.4050  -16.6991    0.0000 F   0  0  0  0  0  0  0  0  0  0  0  0
    0.5713  -13.0728    0.0000 C   0  0  0  0  0  0  0  0  0  0  0  0
   -1.0344   -8.1310    0.0000 N   0  0  0  0  0  0  0  0  0  0  0  0
   -2.1491   -7.1273    0.0000 C   0  0  0  0  0  0  0  0  0  0  0  0
   -1.8373   -5.6601    0.0000 C   0  0  0  0  0  0  0  0  0  0  0  0
   -2.9520   -4.6564    0.0000 C   0  0  0  0  0  0  0  0  0  0  0  0
   -2.6401   -3.1891    0.0000 C   0  0  0  0  0  0  0  0  0  0  0  0
   -3.7548   -2.1855    0.0000 O   0  0  0  0  0  0  0  0  0  0  0  0
   -1.2135   -2.7256    0.0000 C   0  0  0  0  0  0  0  0  0  0  0  0
   -0.0000   -3.6073    0.0000 C   0  0  0  0  0  0  0  0  0  0  0  0
    1.2135   -2.7256    0.0000 N   0  0  0  0  0  0  0  0  0  0  0  0
    2.6401   -3.1891    0.0000 C   0  0  0  0  0  0  0  0  0  0  0  0
    3.3211   -4.5257    0.0000 C   0  0  0  0  0  0  0  0  0  0  0  0
    4.6576   -3.8447    0.0000 O   0  0  0  0  0  0  0  0  0  0  0  0
    3.9766   -2.5082    0.0000 C   0  0  0  0  0  0  0  0  0  0  0  0
    0.7500   -1.2990    0.0000 C   0  0  0  0  0  0  0  0  0  0  0  0
    1.5000    0.0000    0.0000 C   0  0  0  0  0  0  0  0  0  0  0  0
    0.7500    1.2990    0.0000 C   0  0  0  0  0  0  0  0  0  0  0  0
   -0.7500    1.2990    0.0000 N   0  0  0  0  0  0  0  0  0  0  0  0
   -1.5000    0.0000    0.0000 C   0  0  0  0  0  0  0  0  0  0  0  0
   -0.7500   -1.2990    0.0000 C   0  0  0  0  0  0  0  0  0  0  0  0
   -4.3786   -5.1199    0.0000 C   0  0  0  0  0  0  0  0  0  0  0  0
   -4.6904   -6.5871    0.0000 C   0  0  0  0  0  0  0  0  0  0  0  0
   -3.5757   -7.5908    0.0000 N   0  0  0  0  0  0  0  0  0  0  0  0
  1  2  2  0
  2  3  1  0
  3  4  1  0
  4  5  2  0
  5  6  1  0
  6  7  2  0
  7  8  1  0
  8  9  1  0
  9 10  1  0
 10 11  1  0
 10 12  1  0
 10 13  1  0
  8 14  2  0
  2 15  1  0
 15 16  1  0
 16 17  2  0
 17 18  1  0
 18 19  1  0
 19 20  2  0
 19 21  1  0
 21 22  2  0
 22 23  1  0
 23 24  1  0
 24 25  1  0
 25 26  1  0
 26 27  1  0
 23 28  1  0
 28 29  2  0
 29 30  1  0
 30 31  2  0
 31 32  1  0
 32 33  2  0
 18 34  2  0
 34 35  1  0
 35 36  2  0
 14  4  1  0
 36 16  1  0
 33 21  1  0
 27 24  1  0
 33 28  1  0
M  END
>  <Compound_ID>  (187) 
CHEMBL3900142

>  <Molecule Name>  (187) 
nan

>  <Molecular Weight>  (187) 
496.45

>  <AlogP>  (187) 
4.31

>  <Smiles>  (187) 
O=C(Cc1cccc(OC(F)(F)F)c1)Nc1cc(C(=O)c2cn(C3COC3)c3ccncc23)ccn1

>  <Standard Type>  (187) 
IC50

>  <Standard Relation>  (187) 
'='

>  <Standard Units>  (187) 
nM

>  <Standard Value>  (187) 
13.8

>  <Assay ChEMBL ID>  (187) 
CHEMBL3887111

>  <Assay Description>  (187) 
HTRF Assay: Isolated TRK Enzyme assays use the HTRF KinEASE-TK kit (Cisbio Cat#62TK0PEJ) with recombinant His-tagged cytoplasmic domains of each TRK receptor sourced from Invitrogen (see table below). This activity-assay measures the phosphorylation of tyrosine residues within a substrate from the HTRF kit which has been validated by Cisbio for a variety of tyrosine kinases including the TRK receptors.Assay Details: Invitrogen Amino FAC FAC Assay ReactionTarget Cat# acids enzyme ATP TimeTRKA PV3144 aa 441-4 nM 40 uM 35 min (NTRK1) 796 TRKB PV3616 aa 526-1 nM 1.4 uM 40 min (NTRK2) 838 TRKC PV3617 aa 510- 10 nM 15 uM 30 min (NTRK3) 8250.5 mM stock solutions of test compounds are prepared and serially diluted in 100% DMSO. A standard curve using the compound of Example 135 disclosed in WO2005/116035 of 150 uM is also prepared on each test plate. High percentage effect (HPE) is defined by 150 uM.

>  <BAO Format ID>  (187) 
BAO_0000357

>  <BAO Label>  (187) 
single protein format

>  <Assay Organism>  (187) 
None

>  <Target ChEMBL ID>  (187) 
CHEMBL2815

>  <Target Name>  (187) 
Nerve growth factor receptor Trk-A

>  <Target Organism>  (187) 
Homo sapiens

>  <Target Type>  (187) 
SINGLE PROTEIN

>  <Document ChEMBL ID>  (187) 
CHEMBL3886170

>  <Source Description>  (187) 
BindingDB Database

>  <Document Journal>  (187) 
nan

>  <Document Year>  (187) 
2015.0

>  <Active>  (187) 
1.0

>  <bits>  (187) 
<rdkit.DataStructs.cDataStructs.ExplicitBitVect object at 0x00000159F6037920>

>  <Group>  (187) 
G2

$$$$

     RDKit          2D

 34 37  0  0  0  0  0  0  0  0999 V2000
   -2.1766   -4.6157    0.0000 C   0  0  0  0  0  0  0  0  0  0  0  0
   -2.6401   -3.1891    0.0000 C   0  0  0  0  0  0  0  0  0  0  0  0
   -3.1036   -1.7626    0.0000 C   0  0  0  0  0  0  0  0  0  0  0  0
   -4.0667   -3.6527    0.0000 C   0  0  0  0  0  0  0  0  0  0  0  0
   -5.1814   -2.6490    0.0000 O   0  0  0  0  0  0  0  0  0  0  0  0
   -1.2135   -2.7256    0.0000 N   0  0  0  0  0  0  0  0  0  0  0  0
   -0.0000   -3.6073    0.0000 C   0  0  0  0  0  0  0  0  0  0  0  0
    1.2135   -2.7256    0.0000 C   0  0  0  0  0  0  0  0  0  0  0  0
    2.6401   -3.1891    0.0000 C   0  0  0  0  0  0  0  0  0  0  0  0
    3.7548   -2.1855    0.0000 O   0  0  0  0  0  0  0  0  0  0  0  0
    2.9520   -4.6564    0.0000 C   0  0  0  0  0  0  0  0  0  0  0  0
    1.8373   -5.6601    0.0000 C   0  0  0  0  0  0  0  0  0  0  0  0
    2.1491   -7.1273    0.0000 N   0  0  0  0  0  0  0  0  0  0  0  0
    3.5757   -7.5908    0.0000 C   0  0  0  0  0  0  0  0  0  0  0  0
    4.6904   -6.5871    0.0000 C   0  0  0  0  0  0  0  0  0  0  0  0
    6.1170   -7.0506    0.0000 N   0  0  0  0  0  0  0  0  0  0  0  0
    6.4289   -8.5179    0.0000 C   0  0  0  0  0  0  0  0  0  0  0  0
    5.3142   -9.5216    0.0000 O   0  0  0  0  0  0  0  0  0  0  0  0
    7.8555   -8.9814    0.0000 C   0  0  0  0  0  0  0  0  0  0  0  0
    8.1673  -10.4486    0.0000 C   0  0  0  0  0  0  0  0  0  0  0  0
    7.0526  -11.4523    0.0000 N   0  0  0  0  0  0  0  0  0  0  0  0
    7.3645  -12.9195    0.0000 C   0  0  0  0  0  0  0  0  0  0  0  0
    8.7911  -13.3831    0.0000 C   0  0  0  0  0  0  0  0  0  0  0  0
    9.1029  -14.8503    0.0000 Cl  0  0  0  0  0  0  0  0  0  0  0  0
    9.9058  -12.3794    0.0000 C   0  0  0  0  0  0  0  0  0  0  0  0
    9.5939  -10.9121    0.0000 N   0  0  0  0  0  0  0  0  0  0  0  0
    4.3786   -5.1199    0.0000 C   0  0  0  0  0  0  0  0  0  0  0  0
    0.7500   -1.2990    0.0000 C   0  0  0  0  0  0  0  0  0  0  0  0
    1.5000    0.0000    0.0000 C   0  0  0  0  0  0  0  0  0  0  0  0
    0.7500    1.2990    0.0000 N   0  0  0  0  0  0  0  0  0  0  0  0
   -0.7500    1.2990    0.0000 C   0  0  0  0  0  0  0  0  0  0  0  0
   -1.5000    2.5981    0.0000 N   0  0  0  0  0  0  0  0  0  0  0  0
   -1.5000    0.0000    0.0000 N   0  0  0  0  0  0  0  0  0  0  0  0
   -0.7500   -1.2990    0.0000 C   0  0  0  0  0  0  0  0  0  0  0  0
  1  2  1  0
  2  3  1  0
  2  4  1  0
  4  5  1  0
  2  6  1  0
  6  7  1  0
  7  8  2  0
  8  9  1  0
  9 10  2  0
  9 11  1  0
 11 12  2  0
 12 13  1  0
 13 14  2  0
 14 15  1  0
 15 16  1  0
 16 17  1  0
 17 18  2  0
 17 19  1  0
 19 20  1  0
 20 21  2  0
 21 22  1  0
 22 23  2  0
 23 24  1  0
 23 25  1  0
 25 26  2  0
 15 27  2  0
  8 28  1  0
 28 29  2  0
 29 30  1  0
 30 31  2  0
 31 32  1  0
 31 33  1  0
 33 34  2  0
 34  6  1  0
 27 11  1  0
 34 28  1  0
 26 20  1  0
M  END
>  <Compound_ID>  (188) 
CHEMBL3671441

>  <Molecule Name>  (188) 
nan

>  <Molecular Weight>  (188) 
480.92

>  <AlogP>  (188) 
1.99

>  <Smiles>  (188) 
CC(C)(CO)n1cc(C(=O)c2cncc(NC(=O)Cc3ncc(Cl)cn3)c2)c2cnc(N)nc21

>  <Standard Type>  (188) 
IC50

>  <Standard Relation>  (188) 
'='

>  <Standard Units>  (188) 
nM

>  <Standard Value>  (188) 
34.4

>  <Assay ChEMBL ID>  (188) 
CHEMBL3887033

>  <Assay Description>  (188) 
Enzyme Assay: Isolated TRK Enzyme assays use the HTRF KinEASE-TK kit (Cisbio Cat# 62TK0PEJ) with recombinant His-tagged cytoplasmic domains of each TRK receptor sourced from Invitrogen (see table below). This activity-assay measures the phosphorylation of tyrosine residues within a substrate from the HTRF kit which has been validated by Cisbio for a variety of tyrosine kinases including the TRK receptors. Assay details: Target:TRKA; Invitrogen Cat# PV3144; Amino acids:aa 441-796; FAC enzyme:4nM; FAC ATP:40uM; Assay Reaction Time:35min.

>  <BAO Format ID>  (188) 
BAO_0000357

>  <BAO Label>  (188) 
single protein format

>  <Assay Organism>  (188) 
None

>  <Target ChEMBL ID>  (188) 
CHEMBL2815

>  <Target Name>  (188) 
Nerve growth factor receptor Trk-A

>  <Target Organism>  (188) 
Homo sapiens

>  <Target Type>  (188) 
SINGLE PROTEIN

>  <Document ChEMBL ID>  (188) 
CHEMBL3639348

>  <Source Description>  (188) 
BindingDB Database

>  <Document Journal>  (188) 
nan

>  <Document Year>  (188) 
2014.0

>  <Active>  (188) 
1.0

>  <bits>  (188) 
<rdkit.DataStructs.cDataStructs.ExplicitBitVect object at 0x00000159F6036CE0>

>  <Group>  (188) 
G2

$$$$

     RDKit          2D

 35 38  0  0  0  0  0  0  0  0999 V2000
   -2.1766   -4.6157    0.0000 C   0  0  0  0  0  0  0  0  0  0  0  0
   -2.6401   -3.1891    0.0000 C   0  0  0  0  0  0  0  0  0  0  0  0
   -3.1036   -1.7626    0.0000 C   0  0  0  0  0  0  0  0  0  0  0  0
   -4.0667   -3.6527    0.0000 C   0  0  0  0  0  0  0  0  0  0  0  0
   -5.1814   -2.6490    0.0000 O   0  0  0  0  0  0  0  0  0  0  0  0
   -1.2135   -2.7256    0.0000 N   0  0  0  0  0  0  0  0  0  0  0  0
   -0.0000   -3.6073    0.0000 C   0  0  0  0  0  0  0  0  0  0  0  0
    1.2135   -2.7256    0.0000 C   0  0  0  0  0  0  0  0  0  0  0  0
    2.6401   -3.1891    0.0000 C   0  0  0  0  0  0  0  0  0  0  0  0
    3.7548   -2.1855    0.0000 O   0  0  0  0  0  0  0  0  0  0  0  0
    2.9520   -4.6564    0.0000 C   0  0  0  0  0  0  0  0  0  0  0  0
    1.8373   -5.6601    0.0000 C   0  0  0  0  0  0  0  0  0  0  0  0
    2.1491   -7.1273    0.0000 N   0  0  0  0  0  0  0  0  0  0  0  0
    3.5757   -7.5908    0.0000 C   0  0  0  0  0  0  0  0  0  0  0  0
    4.6904   -6.5871    0.0000 C   0  0  0  0  0  0  0  0  0  0  0  0
    6.1170   -7.0506    0.0000 N   0  0  0  0  0  0  0  0  0  0  0  0
    6.4289   -8.5179    0.0000 C   0  0  0  0  0  0  0  0  0  0  0  0
    5.3142   -9.5216    0.0000 O   0  0  0  0  0  0  0  0  0  0  0  0
    7.8555   -8.9814    0.0000 C   0  0  0  0  0  0  0  0  0  0  0  0
    8.1673  -10.4486    0.0000 C   0  0  0  0  0  0  0  0  0  0  0  0
    7.0526  -11.4523    0.0000 C   0  0  0  0  0  0  0  0  0  0  0  0
    7.3645  -12.9195    0.0000 C   0  0  0  0  0  0  0  0  0  0  0  0
    8.7911  -13.3831    0.0000 C   0  0  0  0  0  0  0  0  0  0  0  0
    9.1029  -14.8503    0.0000 F   0  0  0  0  0  0  0  0  0  0  0  0
    9.9058  -12.3794    0.0000 C   0  0  0  0  0  0  0  0  0  0  0  0
   11.3324  -12.8429    0.0000 F   0  0  0  0  0  0  0  0  0  0  0  0
    9.5939  -10.9121    0.0000 C   0  0  0  0  0  0  0  0  0  0  0  0
    4.3786   -5.1199    0.0000 C   0  0  0  0  0  0  0  0  0  0  0  0
    0.7500   -1.2990    0.0000 C   0  0  0  0  0  0  0  0  0  0  0  0
    1.5000    0.0000    0.0000 C   0  0  0  0  0  0  0  0  0  0  0  0
    0.7500    1.2990    0.0000 N   0  0  0  0  0  0  0  0  0  0  0  0
   -0.7500    1.2990    0.0000 C   0  0  0  0  0  0  0  0  0  0  0  0
   -1.5000    2.5981    0.0000 N   0  0  0  0  0  0  0  0  0  0  0  0
   -1.5000    0.0000    0.0000 N   0  0  0  0  0  0  0  0  0  0  0  0
   -0.7500   -1.2990    0.0000 C   0  0  0  0  0  0  0  0  0  0  0  0
  1  2  1  0
  2  3  1  0
  2  4  1  0
  4  5  1  0
  2  6  1  0
  6  7  1  0
  7  8  2  0
  8  9  1  0
  9 10  2  0
  9 11  1  0
 11 12  2  0
 12 13  1  0
 13 14  2  0
 14 15  1  0
 15 16  1  0
 16 17  1  0
 17 18  2  0
 17 19  1  0
 19 20  1  0
 20 21  2  0
 21 22  1  0
 22 23  2  0
 23 24  1  0
 23 25  1  0
 25 26  1  0
 25 27  2  0
 15 28  2  0
  8 29  1  0
 29 30  2  0
 30 31  1  0
 31 32  2  0
 32 33  1  0
 32 34  1  0
 34 35  2  0
 35  6  1  0
 28 11  1  0
 35 29  1  0
 27 20  1  0
M  END
>  <Compound_ID>  (189) 
CHEMBL3671440

>  <Molecule Name>  (189) 
nan

>  <Molecular Weight>  (189) 
480.48

>  <AlogP>  (189) 
2.83

>  <Smiles>  (189) 
CC(C)(CO)n1cc(C(=O)c2cncc(NC(=O)Cc3ccc(F)c(F)c3)c2)c2cnc(N)nc21

>  <Standard Type>  (189) 
IC50

>  <Standard Relation>  (189) 
'='

>  <Standard Units>  (189) 
nM

>  <Standard Value>  (189) 
12.1

>  <Assay ChEMBL ID>  (189) 
CHEMBL3887033

>  <Assay Description>  (189) 
Enzyme Assay: Isolated TRK Enzyme assays use the HTRF KinEASE-TK kit (Cisbio Cat# 62TK0PEJ) with recombinant His-tagged cytoplasmic domains of each TRK receptor sourced from Invitrogen (see table below). This activity-assay measures the phosphorylation of tyrosine residues within a substrate from the HTRF kit which has been validated by Cisbio for a variety of tyrosine kinases including the TRK receptors. Assay details: Target:TRKA; Invitrogen Cat# PV3144; Amino acids:aa 441-796; FAC enzyme:4nM; FAC ATP:40uM; Assay Reaction Time:35min.

>  <BAO Format ID>  (189) 
BAO_0000357

>  <BAO Label>  (189) 
single protein format

>  <Assay Organism>  (189) 
None

>  <Target ChEMBL ID>  (189) 
CHEMBL2815

>  <Target Name>  (189) 
Nerve growth factor receptor Trk-A

>  <Target Organism>  (189) 
Homo sapiens

>  <Target Type>  (189) 
SINGLE PROTEIN

>  <Document ChEMBL ID>  (189) 
CHEMBL3639348

>  <Source Description>  (189) 
BindingDB Database

>  <Document Journal>  (189) 
nan

>  <Document Year>  (189) 
2014.0

>  <Active>  (189) 
1.0

>  <bits>  (189) 
<rdkit.DataStructs.cDataStructs.ExplicitBitVect object at 0x00000159F60351C0>

>  <Group>  (189) 
G2

$$$$

     RDKit          2D

 34 38  0  0  0  0  0  0  0  0999 V2000
   -2.1766   -4.6157    0.0000 C   0  0  0  0  0  0  0  0  0  0  0  0
   -2.6401   -3.1891    0.0000 C   0  0  0  0  0  0  0  0  0  0  0  0
   -3.1036   -1.7626    0.0000 C   0  0  0  0  0  0  0  0  0  0  0  0
   -4.0667   -3.6527    0.0000 C   0  0  0  0  0  0  0  0  0  0  0  0
   -1.2135   -2.7256    0.0000 N   0  0  0  0  0  0  0  0  0  0  0  0
   -0.0000   -3.6073    0.0000 C   0  0  0  0  0  0  0  0  0  0  0  0
    1.2135   -2.7256    0.0000 C   0  0  0  0  0  0  0  0  0  0  0  0
    2.6401   -3.1891    0.0000 C   0  0  0  0  0  0  0  0  0  0  0  0
    3.7548   -2.1855    0.0000 O   0  0  0  0  0  0  0  0  0  0  0  0
    2.9520   -4.6564    0.0000 C   0  0  0  0  0  0  0  0  0  0  0  0
    1.8373   -5.6601    0.0000 C   0  0  0  0  0  0  0  0  0  0  0  0
    2.1491   -7.1273    0.0000 N   0  0  0  0  0  0  0  0  0  0  0  0
    3.5757   -7.5908    0.0000 C   0  0  0  0  0  0  0  0  0  0  0  0
    4.6904   -6.5871    0.0000 C   0  0  0  0  0  0  0  0  0  0  0  0
    6.1170   -7.0506    0.0000 N   0  0  0  0  0  0  0  0  0  0  0  0
    6.4289   -8.5179    0.0000 C   0  0  0  0  0  0  0  0  0  0  0  0
    5.3142   -9.5216    0.0000 O   0  0  0  0  0  0  0  0  0  0  0  0
    7.8555   -8.9814    0.0000 C   0  0  0  0  0  0  0  0  0  0  0  0
    8.1673  -10.4486    0.0000 N   0  0  0  0  0  0  0  0  0  0  0  0
    9.5377  -11.0587    0.0000 C   0  0  0  0  0  0  0  0  0  0  0  0
    9.3809  -12.5505    0.0000 C   0  0  0  0  0  0  0  0  0  0  0  0
   10.4956  -13.5542    0.0000 C   0  0  0  0  0  0  0  0  0  0  0  0
   11.9628  -13.8661    0.0000 C   0  0  0  0  0  0  0  0  0  0  0  0
   10.9591  -14.9808    0.0000 C   0  0  0  0  0  0  0  0  0  0  0  0
    7.9136  -12.8624    0.0000 C   0  0  0  0  0  0  0  0  0  0  0  0
    7.1636  -11.5633    0.0000 N   0  0  0  0  0  0  0  0  0  0  0  0
    4.3786   -5.1199    0.0000 C   0  0  0  0  0  0  0  0  0  0  0  0
    0.7500   -1.2990    0.0000 C   0  0  0  0  0  0  0  0  0  0  0  0
    1.5000    0.0000    0.0000 C   0  0  0  0  0  0  0  0  0  0  0  0
    0.7500    1.2990    0.0000 N   0  0  0  0  0  0  0  0  0  0  0  0
   -0.7500    1.2990    0.0000 C   0  0  0  0  0  0  0  0  0  0  0  0
   -1.5000    2.5981    0.0000 N   0  0  0  0  0  0  0  0  0  0  0  0
   -1.5000    0.0000    0.0000 N   0  0  0  0  0  0  0  0  0  0  0  0
   -0.7500   -1.2990    0.0000 C   0  0  0  0  0  0  0  0  0  0  0  0
  1  2  1  0
  2  3  1  0
  2  4  1  0
  2  5  1  0
  5  6  1  0
  6  7  2  0
  7  8  1  0
  8  9  2  0
  8 10  1  0
 10 11  2  0
 11 12  1  0
 12 13  2  0
 13 14  1  0
 14 15  1  0
 15 16  1  0
 16 17  2  0
 16 18  1  0
 18 19  1  0
 19 20  1  0
 20 21  2  0
 21 22  1  0
 22 23  1  0
 23 24  1  0
 21 25  1  0
 25 26  2  0
 14 27  2  0
  7 28  1  0
 28 29  2  0
 29 30  1  0
 30 31  2  0
 31 32  1  0
 31 33  1  0
 33 34  2  0
 34  5  1  0
 27 10  1  0
 34 28  1  0
 26 19  1  0
 24 22  1  0
M  END
>  <Compound_ID>  (190) 
CHEMBL3671449

>  <Molecule Name>  (190) 
nan

>  <Molecular Weight>  (190) 
458.53

>  <AlogP>  (190) 
3.11

>  <Smiles>  (190) 
CC(C)(C)n1cc(C(=O)c2cncc(NC(=O)Cn3cc(C4CC4)cn3)c2)c2cnc(N)nc21

>  <Standard Type>  (190) 
IC50

>  <Standard Relation>  (190) 
'='

>  <Standard Units>  (190) 
nM

>  <Standard Value>  (190) 
1.9

>  <Assay ChEMBL ID>  (190) 
CHEMBL3887033

>  <Assay Description>  (190) 
Enzyme Assay: Isolated TRK Enzyme assays use the HTRF KinEASE-TK kit (Cisbio Cat# 62TK0PEJ) with recombinant His-tagged cytoplasmic domains of each TRK receptor sourced from Invitrogen (see table below). This activity-assay measures the phosphorylation of tyrosine residues within a substrate from the HTRF kit which has been validated by Cisbio for a variety of tyrosine kinases including the TRK receptors. Assay details: Target:TRKA; Invitrogen Cat# PV3144; Amino acids:aa 441-796; FAC enzyme:4nM; FAC ATP:40uM; Assay Reaction Time:35min.

>  <BAO Format ID>  (190) 
BAO_0000357

>  <BAO Label>  (190) 
single protein format

>  <Assay Organism>  (190) 
None

>  <Target ChEMBL ID>  (190) 
CHEMBL2815

>  <Target Name>  (190) 
Nerve growth factor receptor Trk-A

>  <Target Organism>  (190) 
Homo sapiens

>  <Target Type>  (190) 
SINGLE PROTEIN

>  <Document ChEMBL ID>  (190) 
CHEMBL3639348

>  <Source Description>  (190) 
BindingDB Database

>  <Document Journal>  (190) 
nan

>  <Document Year>  (190) 
2014.0

>  <Active>  (190) 
1.0

>  <bits>  (190) 
<rdkit.DataStructs.cDataStructs.ExplicitBitVect object at 0x00000159F6034E40>

>  <Group>  (190) 
G2

$$$$

     RDKit          2D

 33 37  0  0  0  0  0  0  0  0999 V2000
   -3.1036   -1.7626    0.0000 C   0  0  0  0  0  0  0  0  0  0  0  0
   -2.6401   -3.1891    0.0000 C   0  0  0  0  0  0  0  0  0  0  0  0
   -1.2135   -2.7256    0.0000 N   0  0  0  0  0  0  0  0  0  0  0  0
   -0.0000   -3.6073    0.0000 C   0  0  0  0  0  0  0  0  0  0  0  0
    1.2135   -2.7256    0.0000 C   0  0  0  0  0  0  0  0  0  0  0  0
    2.6401   -3.1891    0.0000 C   0  0  0  0  0  0  0  0  0  0  0  0
    3.7548   -2.1855    0.0000 O   0  0  0  0  0  0  0  0  0  0  0  0
    2.9520   -4.6564    0.0000 C   0  0  0  0  0  0  0  0  0  0  0  0
    1.8373   -5.6601    0.0000 C   0  0  0  0  0  0  0  0  0  0  0  0
    2.1491   -7.1273    0.0000 N   0  0  0  0  0  0  0  0  0  0  0  0
    3.5757   -7.5908    0.0000 C   0  0  0  0  0  0  0  0  0  0  0  0
    4.6904   -6.5871    0.0000 C   0  0  0  0  0  0  0  0  0  0  0  0
    6.1170   -7.0506    0.0000 N   0  0  0  0  0  0  0  0  0  0  0  0
    6.4289   -8.5179    0.0000 C   0  0  0  0  0  0  0  0  0  0  0  0
    5.3142   -9.5216    0.0000 O   0  0  0  0  0  0  0  0  0  0  0  0
    7.8555   -8.9814    0.0000 C   0  0  0  0  0  0  0  0  0  0  0  0
    8.1673  -10.4486    0.0000 C   0  0  0  0  0  0  0  0  0  0  0  0
    7.0526  -11.4523    0.0000 C   0  0  0  0  0  0  0  0  0  0  0  0
    7.3645  -12.9195    0.0000 C   0  0  0  0  0  0  0  0  0  0  0  0
    8.7911  -13.3831    0.0000 C   0  0  0  0  0  0  0  0  0  0  0  0
    9.1029  -14.8503    0.0000 Cl  0  0  0  0  0  0  0  0  0  0  0  0
    9.9058  -12.3794    0.0000 C   0  0  0  0  0  0  0  0  0  0  0  0
    9.5939  -10.9121    0.0000 N   0  0  0  0  0  0  0  0  0  0  0  0
    4.3786   -5.1199    0.0000 C   0  0  0  0  0  0  0  0  0  0  0  0
    0.7500   -1.2990    0.0000 C   0  0  0  0  0  0  0  0  0  0  0  0
    1.5000    0.0000    0.0000 C   0  0  0  0  0  0  0  0  0  0  0  0
    0.7500    1.2990    0.0000 N   0  0  0  0  0  0  0  0  0  0  0  0
   -0.7500    1.2990    0.0000 C   0  0  0  0  0  0  0  0  0  0  0  0
   -1.5000    0.0000    0.0000 N   0  0  0  0  0  0  0  0  0  0  0  0
   -0.7500   -1.2990    0.0000 C   0  0  0  0  0  0  0  0  0  0  0  0
   -2.1766   -4.6157    0.0000 C   0  0  0  0  0  0  0  0  0  0  0  0
   -3.6032   -5.0793    0.0000 O   0  0  0  0  0  0  0  0  0  0  0  0
   -4.0667   -3.6527    0.0000 C   0  0  0  0  0  0  0  0  0  0  0  0
  1  2  1  0
  2  3  1  0
  3  4  1  0
  4  5  2  0
  5  6  1  0
  6  7  2  0
  6  8  1  0
  8  9  2  0
  9 10  1  0
 10 11  2  0
 11 12  1  0
 12 13  1  0
 13 14  1  0
 14 15  2  0
 14 16  1  0
 16 17  1  0
 17 18  2  0
 18 19  1  0
 19 20  2  0
 20 21  1  0
 20 22  1  0
 22 23  2  0
 12 24  2  0
  5 25  1  0
 25 26  2  0
 26 27  1  0
 27 28  2  0
 28 29  1  0
 29 30  2  0
  2 31  1  0
 31 32  1  0
 32 33  1  0
 33  2  1  0
 30  3  1  0
 24  8  1  0
 30 25  1  0
 23 17  1  0
M  END
>  <Compound_ID>  (191) 
CHEMBL3666307

>  <Molecule Name>  (191) 
nan

>  <Molecular Weight>  (191) 
462.9

>  <AlogP>  (191) 
3.03

>  <Smiles>  (191) 
CC1(n2cc(C(=O)c3cncc(NC(=O)Cc4ccc(Cl)cn4)c3)c3cncnc32)COC1

>  <Standard Type>  (191) 
IC50

>  <Standard Relation>  (191) 
'='

>  <Standard Units>  (191) 
nM

>  <Standard Value>  (191) 
98.4

>  <Assay ChEMBL ID>  (191) 
CHEMBL3887033

>  <Assay Description>  (191) 
Enzyme Assay: Isolated TRK Enzyme assays use the HTRF KinEASE-TK kit (Cisbio Cat# 62TK0PEJ) with recombinant His-tagged cytoplasmic domains of each TRK receptor sourced from Invitrogen (see table below). This activity-assay measures the phosphorylation of tyrosine residues within a substrate from the HTRF kit which has been validated by Cisbio for a variety of tyrosine kinases including the TRK receptors. Assay details: Target:TRKA; Invitrogen Cat# PV3144; Amino acids:aa 441-796; FAC enzyme:4nM; FAC ATP:40uM; Assay Reaction Time:35min.

>  <BAO Format ID>  (191) 
BAO_0000357

>  <BAO Label>  (191) 
single protein format

>  <Assay Organism>  (191) 
None

>  <Target ChEMBL ID>  (191) 
CHEMBL2815

>  <Target Name>  (191) 
Nerve growth factor receptor Trk-A

>  <Target Organism>  (191) 
Homo sapiens

>  <Target Type>  (191) 
SINGLE PROTEIN

>  <Document ChEMBL ID>  (191) 
CHEMBL3639348

>  <Source Description>  (191) 
BindingDB Database

>  <Document Journal>  (191) 
nan

>  <Document Year>  (191) 
2014.0

>  <Active>  (191) 
1.0

>  <bits>  (191) 
<rdkit.DataStructs.cDataStructs.ExplicitBitVect object at 0x00000159F6037990>

>  <Group>  (191) 
G2

$$$$

     RDKit          2D

 32 36  0  0  0  0  0  0  0  0999 V2000
   -8.0346   -3.5760    0.0000 C   0  0  0  0  0  0  0  0  0  0  0  0
   -6.9199   -4.5797    0.0000 C   0  0  0  0  0  0  0  0  0  0  0  0
   -5.4933   -4.1162    0.0000 C   0  0  0  0  0  0  0  0  0  0  0  0
   -4.3786   -5.1199    0.0000 N   0  0  0  0  0  0  0  0  0  0  0  0
   -2.9520   -4.6564    0.0000 C   0  0  0  0  0  0  0  0  0  0  0  0
   -1.8373   -5.6601    0.0000 O   0  0  0  0  0  0  0  0  0  0  0  0
   -2.6401   -3.1891    0.0000 N   0  0  0  0  0  0  0  0  0  0  0  0
   -1.2135   -2.7256    0.0000 C   0  0  0  0  0  0  0  0  0  0  0  0
   -0.0000   -3.6073    0.0000 C   0  0  0  0  0  0  0  0  0  0  0  0
    1.2135   -2.7256    0.0000 N   0  0  0  0  0  0  0  0  0  0  0  0
    0.7500   -1.2990    0.0000 N   0  0  0  0  0  0  0  0  0  0  0  0
    1.5000    0.0000    0.0000 C   0  0  0  0  0  0  0  0  0  0  0  0
    0.7500    1.2990    0.0000 C   0  0  0  0  0  0  0  0  0  0  0  0
   -0.7500    1.2990    0.0000 C   0  0  0  0  0  0  0  0  0  0  0  0
   -1.5000    2.5981    0.0000 N   0  0  0  0  0  0  0  0  0  0  0  0
   -2.9918    2.7549    0.0000 C   0  0  0  0  0  0  0  0  0  0  0  0
   -3.3037    4.2221    0.0000 C   0  0  0  0  0  0  0  0  0  0  0  0
   -2.0046    4.9721    0.0000 C   0  0  0  0  0  0  0  0  0  0  0  0
   -0.8899    3.9684    0.0000 C   0  0  0  0  0  0  0  0  0  0  0  0
    0.5773    4.2803    0.0000 C   0  0  0  0  0  0  0  0  0  0  0  0
    1.5810    3.1655    0.0000 C   0  0  0  0  0  0  0  0  0  0  0  0
    3.0482    3.4774    0.0000 C   0  0  0  0  0  0  0  0  0  0  0  0
    4.0519    2.3627    0.0000 F   0  0  0  0  0  0  0  0  0  0  0  0
    3.5118    4.9040    0.0000 C   0  0  0  0  0  0  0  0  0  0  0  0
    2.5081    6.0187    0.0000 C   0  0  0  0  0  0  0  0  0  0  0  0
    1.0409    5.7068    0.0000 C   0  0  0  0  0  0  0  0  0  0  0  0
    0.0372    6.8216    0.0000 F   0  0  0  0  0  0  0  0  0  0  0  0
   -1.5000    0.0000    0.0000 N   0  0  0  0  0  0  0  0  0  0  0  0
   -0.7500   -1.2990    0.0000 C   0  0  0  0  0  0  0  0  0  0  0  0
   -4.6904   -6.5871    0.0000 C   0  0  0  0  0  0  0  0  0  0  0  0
   -6.1170   -7.0506    0.0000 C   0  0  0  0  0  0  0  0  0  0  0  0
   -7.2317   -6.0469    0.0000 N   0  0  0  0  0  0  0  0  0  0  0  0
  2  1  1  1
  2  3  1  0
  3  4  1  0
  4  5  1  0
  5  6  2  0
  5  7  1  0
  7  8  1  0
  8  9  1  0
  9 10  2  0
 10 11  1  0
 11 12  1  0
 12 13  2  0
 13 14  1  0
 14 15  1  0
 15 16  1  0
 16 17  1  0
 17 18  1  0
 18 19  1  0
 19 20  1  6
 20 21  2  0
 21 22  1  0
 22 23  1  0
 22 24  2  0
 24 25  1  0
 25 26  2  0
 26 27  1  0
 14 28  2  0
 28 29  1  0
  4 30  1  0
 30 31  1  0
 31 32  1  0
 32  2  1  0
 29  8  2  0
 29 11  1  0
 19 15  1  0
 26 20  1  0
M  END
>  <Compound_ID>  (192) 
CHEMBL3975958

>  <Molecule Name>  (192) 
nan

>  <Molecular Weight>  (192) 
441.49

>  <AlogP>  (192) 
3.17

>  <Smiles>  (192) 
C[C@H]1CN(C(=O)Nc2cnn3ccc(N4CCC[C@@H]4c4cc(F)ccc4F)nc23)CCN1

>  <Standard Type>  (192) 
IC50

>  <Standard Relation>  (192) 
'='

>  <Standard Units>  (192) 
nM

>  <Standard Value>  (192) 
88.3

>  <Assay ChEMBL ID>  (192) 
CHEMBL3887076

>  <Assay Description>  (192) 
ELISA Assay: An enzyme-linked immunosorbant assay (ELISA) was used to assess TrkA kinase activity in the presence of inhibitors. Immulon 4HBX 384-well microtiter plates (Thermo part #8755) were coated with a 0.025 mg/mL solution of poly (Glu, Ala, Tyr; 6:3:1; Sigma P3899). Various concentrations of test compound, 2.5 nM TrkA (Invitrogen Corp., histidine-tagged recombinant human TrkA, cytoplasmic domain), and 500 uM ATP were incubated for 25 minutes at ambient temperature in the coated plates while shaking. The assay buffer consisted of 25 mM MOPS pH 7.5, 0.005% (v/v) Triton X-100 and 5 mM MgCl2. The reaction mixture was removed from the plate by washing with PBS containing 0.1% (v/v) Tween 20. The phosphorylated reaction product was detected using 0.2 ug/mL of a phosphotyrosine specific monoclonal antibody (clone PY20) conjugated to horseradish peroxidase in conjunction with the TMB Peroxidase Substrate System (KPL).

>  <BAO Format ID>  (192) 
BAO_0000357

>  <BAO Label>  (192) 
single protein format

>  <Assay Organism>  (192) 
None

>  <Target ChEMBL ID>  (192) 
CHEMBL2815

>  <Target Name>  (192) 
Nerve growth factor receptor Trk-A

>  <Target Organism>  (192) 
Homo sapiens

>  <Target Type>  (192) 
SINGLE PROTEIN

>  <Document ChEMBL ID>  (192) 
CHEMBL3886151

>  <Source Description>  (192) 
BindingDB Database

>  <Document Journal>  (192) 
nan

>  <Document Year>  (192) 
2014.0

>  <Active>  (192) 
1.0

>  <bits>  (192) 
<rdkit.DataStructs.cDataStructs.ExplicitBitVect object at 0x00000159F6035230>

>  <Group>  (192) 
G2

$$$$

     RDKit          2D

 32 35  0  0  0  0  0  0  0  0999 V2000
    3.7500   -1.2990    0.0000 C   0  0  0  0  0  0  0  0  0  0  0  0
    3.0000   -2.5981    0.0000 C   0  0  0  0  0  0  0  0  0  0  0  0
    3.7500   -3.8971    0.0000 C   0  0  0  0  0  0  0  0  0  0  0  0
    5.2500   -3.8971    0.0000 C   0  0  0  0  0  0  0  0  0  0  0  0
    6.0000   -5.1962    0.0000 C   0  0  0  0  0  0  0  0  0  0  0  0
    7.5000   -5.1962    0.0000 F   0  0  0  0  0  0  0  0  0  0  0  0
    5.2500   -6.4952    0.0000 C   0  0  0  0  0  0  0  0  0  0  0  0
    3.7500   -6.4952    0.0000 C   0  0  0  0  0  0  0  0  0  0  0  0
    3.0000   -5.1962    0.0000 C   0  0  0  0  0  0  0  0  0  0  0  0
    1.5000   -5.1962    0.0000 F   0  0  0  0  0  0  0  0  0  0  0  0
    1.5000   -2.5981    0.0000 N   0  0  0  0  0  0  0  0  0  0  0  0
    0.7500   -3.8971    0.0000 C   0  0  0  0  0  0  0  0  0  0  0  0
    0.7500   -1.2990    0.0000 C   0  0  0  0  0  0  0  0  0  0  0  0
    1.5000    0.0000    0.0000 C   0  0  0  0  0  0  0  0  0  0  0  0
    0.7500    1.2990    0.0000 C   0  0  0  0  0  0  0  0  0  0  0  0
   -0.7500    1.2990    0.0000 N   0  0  0  0  0  0  0  0  0  0  0  0
   -1.7537    2.4138    0.0000 N   0  0  0  0  0  0  0  0  0  0  0  0
   -3.1240    1.8037    0.0000 C   0  0  0  0  0  0  0  0  0  0  0  0
   -2.9672    0.3119    0.0000 C   0  0  0  0  0  0  0  0  0  0  0  0
   -4.0819   -0.6918    0.0000 N   0  0  0  0  0  0  0  0  0  0  0  0
   -5.5085   -0.2283    0.0000 C   0  0  0  0  0  0  0  0  0  0  0  0
   -5.8204    1.2389    0.0000 O   0  0  0  0  0  0  0  0  0  0  0  0
   -6.6232   -1.2320    0.0000 N   0  0  0  0  0  0  0  0  0  0  0  0
   -8.0498   -0.7685    0.0000 C   0  0  0  0  0  0  0  0  0  0  0  0
   -8.3617    0.6987    0.0000 C   0  0  0  0  0  0  0  0  0  0  0  0
   -9.7883    1.1623    0.0000 C   0  0  0  0  0  0  0  0  0  0  0  0
  -10.9030    0.1586    0.0000 C   0  0  0  0  0  0  0  0  0  0  0  0
  -12.3296    0.6221    0.0000 O   0  0  0  0  0  0  0  0  0  0  0  0
  -10.5911   -1.3086    0.0000 C   0  0  0  0  0  0  0  0  0  0  0  0
   -9.1645   -1.7722    0.0000 C   0  0  0  0  0  0  0  0  0  0  0  0
   -1.5000    0.0000    0.0000 C   0  0  0  0  0  0  0  0  0  0  0  0
   -0.7500   -1.2990    0.0000 N   0  0  0  0  0  0  0  0  0  0  0  0
  2  1  1  6
  2  3  1  0
  3  4  2  0
  4  5  1  0
  5  6  1  0
  5  7  2  0
  7  8  1  0
  8  9  2  0
  9 10  1  0
  2 11  1  0
 11 12  1  0
 11 13  1  0
 13 14  1  0
 14 15  2  0
 15 16  1  0
 16 17  1  0
 17 18  2  0
 18 19  1  0
 19 20  1  0
 20 21  1  0
 21 22  2  0
 21 23  1  0
 23 24  1  0
 24 25  2  0
 25 26  1  0
 26 27  2  0
 27 28  1  0
 27 29  1  0
 29 30  2  0
 19 31  2  0
 31 32  1  0
  9  3  1  0
 32 13  2  0
 31 16  1  0
 30 24  1  0
M  END
>  <Compound_ID>  (193) 
CHEMBL4795791

>  <Molecule Name>  (193) 
nan

>  <Molecular Weight>  (193) 
438.44

>  <AlogP>  (193) 
4.55

>  <Smiles>  (193) 
C[C@H](c1cc(F)ccc1F)N(C)c1ccn2ncc(NC(=O)Nc3ccc(O)cc3)c2n1

>  <Standard Type>  (193) 
IC50

>  <Standard Relation>  (193) 
'='

>  <Standard Units>  (193) 
nM

>  <Standard Value>  (193) 
2.5

>  <Assay ChEMBL ID>  (193) 
CHEMBL4678168

>  <Assay Description>  (193) 
Inhibition of Trk-A (unknown origin)

>  <BAO Format ID>  (193) 
BAO_0000357

>  <BAO Label>  (193) 
single protein format

>  <Assay Organism>  (193) 
Homo sapiens

>  <Target ChEMBL ID>  (193) 
CHEMBL2815

>  <Target Name>  (193) 
Nerve growth factor receptor Trk-A

>  <Target Organism>  (193) 
Homo sapiens

>  <Target Type>  (193) 
SINGLE PROTEIN

>  <Document ChEMBL ID>  (193) 
CHEMBL4673327

>  <Source Description>  (193) 
Scientific Literature

>  <Document Journal>  (193) 
Bioorg Med Chem Lett

>  <Document Year>  (193) 
2021.0

>  <Active>  (193) 
1.0

>  <bits>  (193) 
<rdkit.DataStructs.cDataStructs.ExplicitBitVect object at 0x00000159F6034EB0>

>  <Group>  (193) 
G2

$$$$

     RDKit          2D

 41 45  0  0  0  0  0  0  0  0999 V2000
   -5.0023   -8.0543    0.0000 C   0  0  0  0  0  0  0  0  0  0  0  0
   -4.6904   -6.5871    0.0000 C   0  0  0  0  0  0  0  0  0  0  0  0
   -3.2638   -6.1236    0.0000 C   0  0  0  0  0  0  0  0  0  0  0  0
   -5.8051   -5.5834    0.0000 C   0  0  0  0  0  0  0  0  0  0  0  0
   -7.2317   -6.0469    0.0000 C   0  0  0  0  0  0  0  0  0  0  0  0
   -8.3464   -5.0433    0.0000 C   0  0  0  0  0  0  0  0  0  0  0  0
   -8.0346   -3.5760    0.0000 C   0  0  0  0  0  0  0  0  0  0  0  0
   -9.1493   -2.5723    0.0000 C   0  0  0  0  0  0  0  0  0  0  0  0
  -10.5759   -3.0359    0.0000 O   0  0  0  0  0  0  0  0  0  0  0  0
   -8.8374   -1.1051    0.0000 N   0  0  0  0  0  0  0  0  0  0  0  0
   -9.9521   -0.1014    0.0000 C   0  0  0  0  0  0  0  0  0  0  0  0
   -9.6403    1.3658    0.0000 C   0  0  0  0  0  0  0  0  0  0  0  0
  -10.7550    2.3695    0.0000 C   0  0  0  0  0  0  0  0  0  0  0  0
  -10.4431    3.8367    0.0000 C   0  0  0  0  0  0  0  0  0  0  0  0
   -9.0165    4.3002    0.0000 N   0  0  0  0  0  0  0  0  0  0  0  0
   -7.9018    3.2966    0.0000 C   0  0  0  0  0  0  0  0  0  0  0  0
   -6.4752    3.7601    0.0000 C   0  0  0  0  0  0  0  0  0  0  0  0
   -6.1634    5.2273    0.0000 N   0  0  0  0  0  0  0  0  0  0  0  0
   -4.7368    5.6908    0.0000 C   0  0  0  0  0  0  0  0  0  0  0  0
   -7.2781    6.2310    0.0000 C   0  0  0  0  0  0  0  0  0  0  0  0
   -8.7047    5.7675    0.0000 C   0  0  0  0  0  0  0  0  0  0  0  0
  -12.1816    1.9060    0.0000 C   0  0  0  0  0  0  0  0  0  0  0  0
  -12.4935    0.4388    0.0000 C   0  0  0  0  0  0  0  0  0  0  0  0
  -13.9200   -0.0248    0.0000 C   0  0  0  0  0  0  0  0  0  0  0  0
  -15.3466   -0.4883    0.0000 F   0  0  0  0  0  0  0  0  0  0  0  0
  -14.3836    1.4018    0.0000 F   0  0  0  0  0  0  0  0  0  0  0  0
  -13.4565   -1.4514    0.0000 F   0  0  0  0  0  0  0  0  0  0  0  0
  -11.3787   -0.5649    0.0000 C   0  0  0  0  0  0  0  0  0  0  0  0
   -6.6080   -3.1125    0.0000 C   0  0  0  0  0  0  0  0  0  0  0  0
   -5.4933   -4.1162    0.0000 C   0  0  0  0  0  0  0  0  0  0  0  0
   -4.0667   -3.6527    0.0000 C   0  0  0  0  0  0  0  0  0  0  0  0
   -2.6401   -3.1891    0.0000 C   0  0  0  0  0  0  0  0  0  0  0  0
   -1.2135   -2.7256    0.0000 C   0  0  0  0  0  0  0  0  0  0  0  0
   -0.0000   -3.6073    0.0000 C   0  0  0  0  0  0  0  0  0  0  0  0
    1.2135   -2.7256    0.0000 N   0  0  0  0  0  0  0  0  0  0  0  0
    0.7500   -1.2990    0.0000 C   0  0  0  0  0  0  0  0  0  0  0  0
    1.5000    0.0000    0.0000 C   0  0  0  0  0  0  0  0  0  0  0  0
    0.7500    1.2990    0.0000 N   0  0  0  0  0  0  0  0  0  0  0  0
   -0.7500    1.2990    0.0000 C   0  0  0  0  0  0  0  0  0  0  0  0
   -1.5000    0.0000    0.0000 C   0  0  0  0  0  0  0  0  0  0  0  0
   -0.7500   -1.2990    0.0000 N   0  0  0  0  0  0  0  0  0  0  0  0
  1  2  1  0
  2  3  1  0
  2  4  1  0
  4  5  2  0
  5  6  1  0
  6  7  2  0
  7  8  1  0
  8  9  2  0
  8 10  1  0
 10 11  1  0
 11 12  2  0
 12 13  1  0
 13 14  1  0
 14 15  1  0
 15 16  1  0
 16 17  1  0
 17 18  1  0
 18 19  1  0
 18 20  1  0
 20 21  1  0
 13 22  2  0
 22 23  1  0
 23 24  1  0
 24 25  1  0
 24 26  1  0
 24 27  1  0
 23 28  2  0
  7 29  1  0
 29 30  2  0
 30 31  1  0
 31 32  3  0
 32 33  1  0
 33 34  2  0
 34 35  1  0
 35 36  2  0
 36 37  1  0
 37 38  2  0
 38 39  1  0
 39 40  2  0
 40 41  1  0
 30  4  1  0
 41 33  1  0
 28 11  1  0
 41 36  1  0
 21 15  1  0
M  END
>  <Compound_ID>  (194) 
CHEMBL4168305

>  <Molecule Name>  (194) 
nan

>  <Molecular Weight>  (194) 
560.62

>  <AlogP>  (194) 
5.27

>  <Smiles>  (194) 
CC(C)c1ccc(C(=O)Nc2cc(CN3CCN(C)CC3)cc(C(F)(F)F)c2)cc1C#Cc1cnc2cnccn12

>  <Standard Type>  (194) 
Kd

>  <Standard Relation>  (194) 
'='

>  <Standard Units>  (194) 
nM

>  <Standard Value>  (194) 
100.0

>  <Assay ChEMBL ID>  (194) 
CHEMBL4151635

>  <Assay Description>  (194) 
Binding affinity to human TrkA

>  <BAO Format ID>  (194) 
BAO_0000357

>  <BAO Label>  (194) 
single protein format

>  <Assay Organism>  (194) 
Homo sapiens

>  <Target ChEMBL ID>  (194) 
CHEMBL2815

>  <Target Name>  (194) 
Nerve growth factor receptor Trk-A

>  <Target Organism>  (194) 
Homo sapiens

>  <Target Type>  (194) 
SINGLE PROTEIN

>  <Document ChEMBL ID>  (194) 
CHEMBL4145679

>  <Source Description>  (194) 
Scientific Literature

>  <Document Journal>  (194) 
J Med Chem

>  <Document Year>  (194) 
2018.0

>  <Active>  (194) 
1.0

>  <bits>  (194) 
<rdkit.DataStructs.cDataStructs.ExplicitBitVect object at 0x00000159F60355B0>

>  <Group>  (194) 
G2

$$$$

     RDKit          2D

 29 31  0  0  0  0  0  0  0  0999 V2000
   -6.4289   -8.5179    0.0000 C   0  0  0  0  0  0  0  0  0  0  0  0
   -6.1170   -7.0506    0.0000 C   0  0  0  0  0  0  0  0  0  0  0  0
   -4.6904   -6.5871    0.0000 C   0  0  0  0  0  0  0  0  0  0  0  0
   -3.5757   -7.5908    0.0000 C   0  0  0  0  0  0  0  0  0  0  0  0
   -3.8876   -9.0580    0.0000 O   0  0  0  0  0  0  0  0  0  0  0  0
   -4.3786   -5.1199    0.0000 N   0  0  0  0  0  0  0  0  0  0  0  0
   -2.9520   -4.6564    0.0000 C   0  0  0  0  0  0  0  0  0  0  0  0
   -1.8373   -5.6601    0.0000 O   0  0  0  0  0  0  0  0  0  0  0  0
   -2.6401   -3.1891    0.0000 N   0  0  0  0  0  0  0  0  0  0  0  0
   -1.2135   -2.7256    0.0000 C   0  0  0  0  0  0  0  0  0  0  0  0
   -0.0000   -3.6073    0.0000 C   0  0  0  0  0  0  0  0  0  0  0  0
    1.2135   -2.7256    0.0000 N   0  0  0  0  0  0  0  0  0  0  0  0
    0.7500   -1.2990    0.0000 N   0  0  0  0  0  0  0  0  0  0  0  0
    1.5000    0.0000    0.0000 C   0  0  0  0  0  0  0  0  0  0  0  0
    0.7500    1.2990    0.0000 C   0  0  0  0  0  0  0  0  0  0  0  0
   -0.7500    1.2990    0.0000 C   0  0  0  0  0  0  0  0  0  0  0  0
   -1.5000    2.5981    0.0000 N   0  0  0  0  0  0  0  0  0  0  0  0
   -0.7500    3.8971    0.0000 C   0  0  0  0  0  0  0  0  0  0  0  0
   -1.5000    5.1962    0.0000 C   0  0  0  0  0  0  0  0  0  0  0  0
    0.7500    3.8971    0.0000 C   0  0  0  0  0  0  0  0  0  0  0  0
    1.5000    2.5981    0.0000 C   0  0  0  0  0  0  0  0  0  0  0  0
    3.0000    2.5981    0.0000 C   0  0  0  0  0  0  0  0  0  0  0  0
    3.7500    1.2990    0.0000 F   0  0  0  0  0  0  0  0  0  0  0  0
    3.7500    3.8971    0.0000 C   0  0  0  0  0  0  0  0  0  0  0  0
    3.0000    5.1962    0.0000 C   0  0  0  0  0  0  0  0  0  0  0  0
    1.5000    5.1962    0.0000 C   0  0  0  0  0  0  0  0  0  0  0  0
    0.7500    6.4952    0.0000 F   0  0  0  0  0  0  0  0  0  0  0  0
   -1.5000    0.0000    0.0000 N   0  0  0  0  0  0  0  0  0  0  0  0
   -0.7500   -1.2990    0.0000 C   0  0  0  0  0  0  0  0  0  0  0  0
  1  2  1  0
  2  3  1  0
  3  4  1  0
  4  5  1  0
  3  6  1  0
  6  7  1  0
  7  8  2  0
  7  9  1  0
  9 10  1  0
 10 11  1  0
 11 12  2  0
 12 13  1  0
 13 14  1  0
 14 15  2  0
 15 16  1  0
 16 17  1  0
 17 18  1  0
 18 19  1  6
 18 20  1  0
 20 21  2  0
 21 22  1  0
 22 23  1  0
 22 24  2  0
 24 25  1  0
 25 26  2  0
 26 27  1  0
 16 28  2  0
 28 29  1  0
 29 10  2  0
 29 13  1  0
 26 20  1  0
M  END
>  <Compound_ID>  (195) 
CHEMBL4754926

>  <Molecule Name>  (195) 
nan

>  <Molecular Weight>  (195) 
404.42

>  <AlogP>  (195) 
3.07

>  <Smiles>  (195) 
CCC(CO)NC(=O)Nc1cnn2ccc(N[C@H](C)c3cc(F)ccc3F)nc12

>  <Standard Type>  (195) 
IC50

>  <Standard Relation>  (195) 
'='

>  <Standard Units>  (195) 
nM

>  <Standard Value>  (195) 
71.0

>  <Assay ChEMBL ID>  (195) 
CHEMBL4678168

>  <Assay Description>  (195) 
Inhibition of Trk-A (unknown origin)

>  <BAO Format ID>  (195) 
BAO_0000357

>  <BAO Label>  (195) 
single protein format

>  <Assay Organism>  (195) 
Homo sapiens

>  <Target ChEMBL ID>  (195) 
CHEMBL2815

>  <Target Name>  (195) 
Nerve growth factor receptor Trk-A

>  <Target Organism>  (195) 
Homo sapiens

>  <Target Type>  (195) 
SINGLE PROTEIN

>  <Document ChEMBL ID>  (195) 
CHEMBL4673327

>  <Source Description>  (195) 
Scientific Literature

>  <Document Journal>  (195) 
Bioorg Med Chem Lett

>  <Document Year>  (195) 
2021.0

>  <Active>  (195) 
1.0

>  <bits>  (195) 
<rdkit.DataStructs.cDataStructs.ExplicitBitVect object at 0x00000159F6035150>

>  <Group>  (195) 
G2

$$$$

     RDKit          2D

 44 49  0  0  0  0  0  0  0  0999 V2000
   -0.7500   -3.8971    0.0000 O   0  0  0  0  0  0  0  0  0  0  0  0
    0.7500   -3.8971    0.0000 C   0  0  0  0  0  0  0  0  0  0  0  0
    1.5000   -2.5981    0.0000 N   0  0  0  0  0  0  0  0  0  0  0  0
    0.7500   -1.2990    0.0000 C   0  0  0  0  0  0  0  0  0  0  0  0
    1.5000    0.0000    0.0000 C   0  0  0  0  0  0  0  0  0  0  0  0
    0.7500    1.2990    0.0000 C   0  0  0  0  0  0  0  0  0  0  0  0
   -0.7500    1.2990    0.0000 C   0  0  0  0  0  0  0  0  0  0  0  0
   -1.5000    2.5981    0.0000 N   0  0  0  0  0  0  0  0  0  0  0  0
   -0.7500    3.8971    0.0000 C   0  0  0  0  0  0  0  0  0  0  0  0
   -1.5000    5.1962    0.0000 C   0  0  0  0  0  0  0  0  0  0  0  0
   -3.0000    5.1962    0.0000 O   0  0  0  0  0  0  0  0  0  0  0  0
   -3.7500    3.8971    0.0000 C   0  0  0  0  0  0  0  0  0  0  0  0
   -3.0000    2.5981    0.0000 C   0  0  0  0  0  0  0  0  0  0  0  0
   -1.5000    0.0000    0.0000 C   0  0  0  0  0  0  0  0  0  0  0  0
   -3.0000    0.0000    0.0000 C   0  0  0  0  0  0  0  0  0  0  0  0
   -3.7500    1.2990    0.0000 O   0  0  0  0  0  0  0  0  0  0  0  0
   -3.7500   -1.2990    0.0000 N   0  0  0  0  0  0  0  0  0  0  0  0
   -3.0000   -2.5981    0.0000 C   0  0  0  0  0  0  0  0  0  0  0  0
   -3.7500   -3.8971    0.0000 C   0  0  0  0  0  0  0  0  0  0  0  0
   -5.2500   -3.8971    0.0000 S   0  0  0  0  0  0  0  0  0  0  0  0
   -6.0000   -2.5981    0.0000 C   0  0  0  0  0  0  0  0  0  0  0  0
   -5.2500   -1.2990    0.0000 C   0  0  0  0  0  0  0  0  0  0  0  0
   -0.7500   -1.2990    0.0000 C   0  0  0  0  0  0  0  0  0  0  0  0
    1.5000   -5.1962    0.0000 C   0  0  0  0  0  0  0  0  0  0  0  0
    2.9918   -5.3529    0.0000 C   0  0  0  0  0  0  0  0  0  0  0  0
    3.3037   -6.8202    0.0000 C   0  0  0  0  0  0  0  0  0  0  0  0
    2.0046   -7.5702    0.0000 C   0  0  0  0  0  0  0  0  0  0  0  0
    0.8899   -6.5665    0.0000 N   0  0  0  0  0  0  0  0  0  0  0  0
   -0.5773   -6.8783    0.0000 C   0  0  0  0  0  0  0  0  0  0  0  0
   -1.5810   -5.7636    0.0000 N   0  0  0  0  0  0  0  0  0  0  0  0
   -3.0482   -6.0755    0.0000 C   0  0  0  0  0  0  0  0  0  0  0  0
   -4.0519   -4.9608    0.0000 N   0  0  0  0  0  0  0  0  0  0  0  0
   -5.5192   -5.2726    0.0000 C   0  0  0  0  0  0  0  0  0  0  0  0
   -6.5229   -4.1579    0.0000 C   0  0  0  0  0  0  0  0  0  0  0  0
   -7.9901   -4.4698    0.0000 C   0  0  0  0  0  0  0  0  0  0  0  0
   -8.9938   -3.3551    0.0000 F   0  0  0  0  0  0  0  0  0  0  0  0
   -8.4536   -5.8964    0.0000 C   0  0  0  0  0  0  0  0  0  0  0  0
   -7.4499   -7.0111    0.0000 C   0  0  0  0  0  0  0  0  0  0  0  0
   -7.9134   -8.4377    0.0000 F   0  0  0  0  0  0  0  0  0  0  0  0
   -5.9827   -6.6992    0.0000 C   0  0  0  0  0  0  0  0  0  0  0  0
   -3.5118   -7.5021    0.0000 N   0  0  0  0  0  0  0  0  0  0  0  0
   -2.5081   -8.6168    0.0000 C   0  0  0  0  0  0  0  0  0  0  0  0
   -1.0409   -8.3049    0.0000 C   0  0  0  0  0  0  0  0  0  0  0  0
   -0.0372   -9.4196    0.0000 Cl  0  0  0  0  0  0  0  0  0  0  0  0
  1  2  2  0
  2  3  1  0
  3  4  1  0
  4  5  2  0
  5  6  1  0
  6  7  2  0
  7  8  1  0
  8  9  1  0
  9 10  1  0
 10 11  1  0
 11 12  1  0
 12 13  1  0
  7 14  1  0
 14 15  1  0
 15 16  2  0
 15 17  1  0
 17 18  1  0
 18 19  1  0
 19 20  1  0
 20 21  1  0
 21 22  1  0
 14 23  2  0
 24  2  1  6
 24 25  1  0
 25 26  1  0
 26 27  1  0
 27 28  1  0
 28 29  1  0
 29 30  2  0
 30 31  1  0
 31 32  1  0
 32 33  1  0
 33 34  2  0
 34 35  1  0
 35 36  1  0
 35 37  2  0
 37 38  1  0
 38 39  1  0
 38 40  2  0
 31 41  2  0
 41 42  1  0
 42 43  2  0
 43 44  1  0
 23  4  1  0
 28 24  1  0
 43 29  1  0
 13  8  1  0
 22 17  1  0
 40 33  1  0
M  END
>  <Compound_ID>  (196) 
CHEMBL4856927

>  <Molecule Name>  (196) 
nan

>  <Molecular Weight>  (196) 
644.15

>  <AlogP>  (196) 
4.78

>  <Smiles>  (196) 
O=C(Nc1ccc(N2CCOCC2)c(C(=O)N2CCSCC2)c1)[C@@H]1CCCN1c1nc(Nc2cc(F)cc(F)c2)ncc1Cl

>  <Standard Type>  (196) 
IC50

>  <Standard Relation>  (196) 
'='

>  <Standard Units>  (196) 
nM

>  <Standard Value>  (196) 
7.9

>  <Assay ChEMBL ID>  (196) 
CHEMBL4811213

>  <Assay Description>  (196) 
Inhibition of human TRKA assessed as decreased enzymatic reactions measured after 1 hr by mobility shift assay

>  <BAO Format ID>  (196) 
BAO_0000357

>  <BAO Label>  (196) 
single protein format

>  <Assay Organism>  (196) 
Homo sapiens

>  <Target ChEMBL ID>  (196) 
CHEMBL2815

>  <Target Name>  (196) 
Nerve growth factor receptor Trk-A

>  <Target Organism>  (196) 
Homo sapiens

>  <Target Type>  (196) 
SINGLE PROTEIN

>  <Document ChEMBL ID>  (196) 
CHEMBL4808257

>  <Source Description>  (196) 
Scientific Literature

>  <Document Journal>  (196) 
Bioorg Med Chem

>  <Document Year>  (196) 
2021.0

>  <Active>  (196) 
1.0

>  <bits>  (196) 
<rdkit.DataStructs.cDataStructs.ExplicitBitVect object at 0x00000159F6034C10>

>  <Group>  (196) 
G2

$$$$

     RDKit          2D

 35 39  0  0  0  0  0  0  0  0999 V2000
    3.0000    0.0000    0.0000 C   0  0  0  0  0  0  0  0  0  0  0  0
    1.5000    0.0000    0.0000 C   0  0  0  0  0  0  0  0  0  0  0  0
    0.7500   -1.2990    0.0000 C   0  0  0  0  0  0  0  0  0  0  0  0
   -0.7500   -1.2990    0.0000 C   0  0  0  0  0  0  0  0  0  0  0  0
   -1.5000    0.0000    0.0000 C   0  0  0  0  0  0  0  0  0  0  0  0
   -3.0000    0.0000    0.0000 C   0  0  0  0  0  0  0  0  0  0  0  0
   -3.7500    1.2990    0.0000 C   0  0  0  0  0  0  0  0  0  0  0  0
   -3.0000    2.5981    0.0000 C   0  0  0  0  0  0  0  0  0  0  0  0
   -3.7500    3.8971    0.0000 C   0  0  0  0  0  0  0  0  0  0  0  0
   -3.0000    5.1962    0.0000 C   0  0  0  0  0  0  0  0  0  0  0  0
   -1.5000    5.1962    0.0000 O   0  0  0  0  0  0  0  0  0  0  0  0
   -3.7500    6.4952    0.0000 N   0  0  0  0  0  0  0  0  0  0  0  0
   -3.0000    7.7942    0.0000 C   0  0  0  0  0  0  0  0  0  0  0  0
   -1.5000    7.7942    0.0000 C   0  0  0  0  0  0  0  0  0  0  0  0
   -0.7500    9.0933    0.0000 N   0  0  0  0  0  0  0  0  0  0  0  0
   -1.5000   10.3923    0.0000 C   0  0  0  0  0  0  0  0  0  0  0  0
   -3.0000   10.3923    0.0000 C   0  0  0  0  0  0  0  0  0  0  0  0
   -3.7500   11.6913    0.0000 C   0  0  0  0  0  0  0  0  0  0  0  0
   -5.2500   11.6913    0.0000 O   0  0  0  0  0  0  0  0  0  0  0  0
   -3.0000   12.9904    0.0000 C   0  0  0  0  0  0  0  0  0  0  0  0
   -1.5082   13.1472    0.0000 C   0  0  0  0  0  0  0  0  0  0  0  0
   -1.1963   14.6144    0.0000 N   0  0  0  0  0  0  0  0  0  0  0  0
    0.1740   15.2245    0.0000 C   0  0  0  0  0  0  0  0  0  0  0  0
    1.3875   14.3428    0.0000 C   0  0  0  0  0  0  0  0  0  0  0  0
    0.3308   16.7163    0.0000 C   0  0  0  0  0  0  0  0  0  0  0  0
   -2.4954   15.3644    0.0000 C   0  0  0  0  0  0  0  0  0  0  0  0
   -2.8073   16.8316    0.0000 N   0  0  0  0  0  0  0  0  0  0  0  0
   -4.2338   17.2951    0.0000 C   0  0  0  0  0  0  0  0  0  0  0  0
   -5.3486   16.2914    0.0000 N   0  0  0  0  0  0  0  0  0  0  0  0
   -5.0367   14.8242    0.0000 C   0  0  0  0  0  0  0  0  0  0  0  0
   -3.6101   14.3607    0.0000 C   0  0  0  0  0  0  0  0  0  0  0  0
   -3.7500    9.0933    0.0000 C   0  0  0  0  0  0  0  0  0  0  0  0
   -1.5000    2.5981    0.0000 C   0  0  0  0  0  0  0  0  0  0  0  0
   -0.7500    1.2990    0.0000 C   0  0  0  0  0  0  0  0  0  0  0  0
    0.7500    1.2990    0.0000 N   0  0  0  0  0  0  0  0  0  0  0  0
  1  2  1  0
  2  3  2  0
  3  4  1  0
  4  5  2  0
  5  6  1  0
  6  7  2  0
  7  8  1  0
  8  9  1  0
  9 10  1  0
 10 11  2  0
 10 12  1  0
 12 13  1  0
 13 14  2  0
 14 15  1  0
 15 16  2  0
 16 17  1  0
 17 18  1  0
 18 19  2  0
 18 20  1  0
 20 21  2  0
 21 22  1  0
 22 23  1  0
 23 24  1  0
 23 25  1  0
 22 26  1  0
 26 27  2  0
 27 28  1  0
 28 29  2  0
 29 30  1  0
 30 31  2  0
 17 32  2  0
  8 33  2  0
 33 34  1  0
 34 35  2  0
 35  2  1  0
 34  5  1  0
 32 13  1  0
 31 20  1  0
 31 26  1  0
M  END
>  <Compound_ID>  (197) 
CHEMBL3661549

>  <Molecule Name>  (197) 
nan

>  <Molecular Weight>  (197) 
464.53

>  <AlogP>  (197) 
4.68

>  <Smiles>  (197) 
Cc1ccc2ccc(CC(=O)Nc3cncc(C(=O)c4cn(C(C)C)c5ncncc45)c3)cc2n1

>  <Standard Type>  (197) 
IC50

>  <Standard Relation>  (197) 
'='

>  <Standard Units>  (197) 
nM

>  <Standard Value>  (197) 
49.1

>  <Assay ChEMBL ID>  (197) 
CHEMBL3887033

>  <Assay Description>  (197) 
Enzyme Assay: Isolated TRK Enzyme assays use the HTRF KinEASE-TK kit (Cisbio Cat# 62TK0PEJ) with recombinant His-tagged cytoplasmic domains of each TRK receptor sourced from Invitrogen (see table below). This activity-assay measures the phosphorylation of tyrosine residues within a substrate from the HTRF kit which has been validated by Cisbio for a variety of tyrosine kinases including the TRK receptors. Assay details: Target:TRKA; Invitrogen Cat# PV3144; Amino acids:aa 441-796; FAC enzyme:4nM; FAC ATP:40uM; Assay Reaction Time:35min.

>  <BAO Format ID>  (197) 
BAO_0000357

>  <BAO Label>  (197) 
single protein format

>  <Assay Organism>  (197) 
None

>  <Target ChEMBL ID>  (197) 
CHEMBL2815

>  <Target Name>  (197) 
Nerve growth factor receptor Trk-A

>  <Target Organism>  (197) 
Homo sapiens

>  <Target Type>  (197) 
SINGLE PROTEIN

>  <Document ChEMBL ID>  (197) 
CHEMBL3639348

>  <Source Description>  (197) 
BindingDB Database

>  <Document Journal>  (197) 
nan

>  <Document Year>  (197) 
2014.0

>  <Active>  (197) 
1.0

>  <bits>  (197) 
<rdkit.DataStructs.cDataStructs.ExplicitBitVect object at 0x00000159F6034660>

>  <Group>  (197) 
G2

$$$$

     RDKit          2D

 32 36  0  0  0  0  0  0  0  0999 V2000
   -2.9520   -4.6564    0.0000 C   0  0  0  0  0  0  0  0  0  0  0  0
   -2.6401   -3.1891    0.0000 C   0  0  0  0  0  0  0  0  0  0  0  0
   -3.7548   -2.1855    0.0000 C   0  0  0  0  0  0  0  0  0  0  0  0
   -1.2135   -2.7256    0.0000 N   0  0  0  0  0  0  0  0  0  0  0  0
   -0.0000   -3.6073    0.0000 C   0  0  0  0  0  0  0  0  0  0  0  0
    1.2135   -2.7256    0.0000 C   0  0  0  0  0  0  0  0  0  0  0  0
    2.6401   -3.1891    0.0000 C   0  0  0  0  0  0  0  0  0  0  0  0
    3.7548   -2.1855    0.0000 O   0  0  0  0  0  0  0  0  0  0  0  0
    2.9520   -4.6564    0.0000 C   0  0  0  0  0  0  0  0  0  0  0  0
    1.8373   -5.6601    0.0000 C   0  0  0  0  0  0  0  0  0  0  0  0
    2.1491   -7.1273    0.0000 N   0  0  0  0  0  0  0  0  0  0  0  0
    3.5757   -7.5908    0.0000 C   0  0  0  0  0  0  0  0  0  0  0  0
    4.6904   -6.5871    0.0000 C   0  0  0  0  0  0  0  0  0  0  0  0
    6.1170   -7.0506    0.0000 N   0  0  0  0  0  0  0  0  0  0  0  0
    6.4289   -8.5179    0.0000 C   0  0  0  0  0  0  0  0  0  0  0  0
    5.3142   -9.5216    0.0000 O   0  0  0  0  0  0  0  0  0  0  0  0
    7.8555   -8.9814    0.0000 C   0  0  0  0  0  0  0  0  0  0  0  0
    9.0690   -8.0997    0.0000 N   0  0  0  0  0  0  0  0  0  0  0  0
   10.2825   -8.9814    0.0000 N   0  0  0  0  0  0  0  0  0  0  0  0
    9.8190  -10.4080    0.0000 C   0  0  0  0  0  0  0  0  0  0  0  0
   10.5690  -11.7070    0.0000 C   0  0  0  0  0  0  0  0  0  0  0  0
    9.8190  -13.0061    0.0000 C   0  0  0  0  0  0  0  0  0  0  0  0
    8.3190  -13.0061    0.0000 C   0  0  0  0  0  0  0  0  0  0  0  0
    7.5690  -11.7070    0.0000 C   0  0  0  0  0  0  0  0  0  0  0  0
    8.3190  -10.4080    0.0000 C   0  0  0  0  0  0  0  0  0  0  0  0
    4.3786   -5.1199    0.0000 C   0  0  0  0  0  0  0  0  0  0  0  0
    0.7500   -1.2990    0.0000 C   0  0  0  0  0  0  0  0  0  0  0  0
    1.5000    0.0000    0.0000 C   0  0  0  0  0  0  0  0  0  0  0  0
    0.7500    1.2990    0.0000 N   0  0  0  0  0  0  0  0  0  0  0  0
   -0.7500    1.2990    0.0000 C   0  0  0  0  0  0  0  0  0  0  0  0
   -1.5000    0.0000    0.0000 N   0  0  0  0  0  0  0  0  0  0  0  0
   -0.7500   -1.2990    0.0000 C   0  0  0  0  0  0  0  0  0  0  0  0
  1  2  1  0
  2  3  1  0
  2  4  1  0
  4  5  1  0
  5  6  2  0
  6  7  1  0
  7  8  2  0
  7  9  1  0
  9 10  2  0
 10 11  1  0
 11 12  2  0
 12 13  1  0
 13 14  1  0
 14 15  1  0
 15 16  2  0
 15 17  1  0
 17 18  1  0
 18 19  1  0
 19 20  2  0
 20 21  1  0
 21 22  2  0
 22 23  1  0
 23 24  2  0
 24 25  1  0
 13 26  2  0
  6 27  1  0
 27 28  2  0
 28 29  1  0
 29 30  2  0
 30 31  1  0
 31 32  2  0
 32  4  1  0
 26  9  1  0
 32 27  1  0
 25 17  2  0
 25 20  1  0
M  END
>  <Compound_ID>  (198) 
CHEMBL3671388

>  <Molecule Name>  (198) 
nan

>  <Molecular Weight>  (198) 
425.45

>  <AlogP>  (198) 
3.77

>  <Smiles>  (198) 
CC(C)n1cc(C(=O)c2cncc(NC(=O)c3[nH]nc4ccccc34)c2)c2cncnc21

>  <Standard Type>  (198) 
IC50

>  <Standard Relation>  (198) 
'='

>  <Standard Units>  (198) 
nM

>  <Standard Value>  (198) 
5.45

>  <Assay ChEMBL ID>  (198) 
CHEMBL3887033

>  <Assay Description>  (198) 
Enzyme Assay: Isolated TRK Enzyme assays use the HTRF KinEASE-TK kit (Cisbio Cat# 62TK0PEJ) with recombinant His-tagged cytoplasmic domains of each TRK receptor sourced from Invitrogen (see table below). This activity-assay measures the phosphorylation of tyrosine residues within a substrate from the HTRF kit which has been validated by Cisbio for a variety of tyrosine kinases including the TRK receptors. Assay details: Target:TRKA; Invitrogen Cat# PV3144; Amino acids:aa 441-796; FAC enzyme:4nM; FAC ATP:40uM; Assay Reaction Time:35min.

>  <BAO Format ID>  (198) 
BAO_0000357

>  <BAO Label>  (198) 
single protein format

>  <Assay Organism>  (198) 
None

>  <Target ChEMBL ID>  (198) 
CHEMBL2815

>  <Target Name>  (198) 
Nerve growth factor receptor Trk-A

>  <Target Organism>  (198) 
Homo sapiens

>  <Target Type>  (198) 
SINGLE PROTEIN

>  <Document ChEMBL ID>  (198) 
CHEMBL3639348

>  <Source Description>  (198) 
BindingDB Database

>  <Document Journal>  (198) 
nan

>  <Document Year>  (198) 
2014.0

>  <Active>  (198) 
1.0

>  <bits>  (198) 
<rdkit.DataStructs.cDataStructs.ExplicitBitVect object at 0x00000159F6036260>

>  <Group>  (198) 
G2

$$$$

     RDKit          2D

 28 31  0  0  0  0  0  0  0  0999 V2000
   -4.6904   -6.5871    0.0000 C   0  0  0  0  0  0  0  0  0  0  0  0
   -4.3786   -5.1199    0.0000 C   0  0  0  0  0  0  0  0  0  0  0  0
   -5.4933   -4.1162    0.0000 C   0  0  0  0  0  0  0  0  0  0  0  0
   -2.9520   -4.6564    0.0000 C   0  0  0  0  0  0  0  0  0  0  0  0
   -1.8373   -5.6601    0.0000 O   0  0  0  0  0  0  0  0  0  0  0  0
   -2.6401   -3.1891    0.0000 N   0  0  0  0  0  0  0  0  0  0  0  0
   -1.2135   -2.7256    0.0000 C   0  0  0  0  0  0  0  0  0  0  0  0
   -0.0000   -3.6073    0.0000 C   0  0  0  0  0  0  0  0  0  0  0  0
    1.2135   -2.7256    0.0000 N   0  0  0  0  0  0  0  0  0  0  0  0
    0.7500   -1.2990    0.0000 N   0  0  0  0  0  0  0  0  0  0  0  0
    1.5000    0.0000    0.0000 C   0  0  0  0  0  0  0  0  0  0  0  0
    0.7500    1.2990    0.0000 C   0  0  0  0  0  0  0  0  0  0  0  0
   -0.7500    1.2990    0.0000 C   0  0  0  0  0  0  0  0  0  0  0  0
   -1.5000    2.5981    0.0000 N   0  0  0  0  0  0  0  0  0  0  0  0
   -2.9918    2.7549    0.0000 C   0  0  0  0  0  0  0  0  0  0  0  0
   -3.3037    4.2221    0.0000 C   0  0  0  0  0  0  0  0  0  0  0  0
   -2.0046    4.9721    0.0000 C   0  0  0  0  0  0  0  0  0  0  0  0
   -0.8899    3.9684    0.0000 C   0  0  0  0  0  0  0  0  0  0  0  0
    0.5773    4.2803    0.0000 C   0  0  0  0  0  0  0  0  0  0  0  0
    1.5810    3.1655    0.0000 C   0  0  0  0  0  0  0  0  0  0  0  0
    3.0482    3.4774    0.0000 C   0  0  0  0  0  0  0  0  0  0  0  0
    4.0519    2.3627    0.0000 F   0  0  0  0  0  0  0  0  0  0  0  0
    3.5118    4.9040    0.0000 C   0  0  0  0  0  0  0  0  0  0  0  0
    2.5081    6.0187    0.0000 C   0  0  0  0  0  0  0  0  0  0  0  0
    1.0409    5.7068    0.0000 C   0  0  0  0  0  0  0  0  0  0  0  0
    0.0372    6.8216    0.0000 F   0  0  0  0  0  0  0  0  0  0  0  0
   -1.5000    0.0000    0.0000 N   0  0  0  0  0  0  0  0  0  0  0  0
   -0.7500   -1.2990    0.0000 C   0  0  0  0  0  0  0  0  0  0  0  0
  1  2  1  0
  2  3  1  0
  2  4  1  0
  4  5  2  0
  4  6  1  0
  6  7  1  0
  7  8  1  0
  8  9  2  0
  9 10  1  0
 10 11  1  0
 11 12  2  0
 12 13  1  0
 13 14  1  0
 14 15  1  0
 15 16  1  0
 16 17  1  0
 17 18  1  0
 18 19  1  6
 19 20  2  0
 20 21  1  0
 21 22  1  0
 21 23  2  0
 23 24  1  0
 24 25  2  0
 25 26  1  0
 13 27  2  0
 27 28  1  0
 28  7  2  0
 28 10  1  0
 18 14  1  0
 25 19  1  0
M  END
>  <Compound_ID>  (199) 
CHEMBL4109358

>  <Molecule Name>  (199) 
nan

>  <Molecular Weight>  (199) 
385.42

>  <AlogP>  (199) 
3.94

>  <Smiles>  (199) 
CC(C)C(=O)Nc1cnn2ccc(N3CCC[C@@H]3c3cc(F)ccc3F)nc12

>  <Standard Type>  (199) 
IC50

>  <Standard Relation>  (199) 
'='

>  <Standard Units>  (199) 
nM

>  <Standard Value>  (199) 
12.1

>  <Assay ChEMBL ID>  (199) 
CHEMBL3887076

>  <Assay Description>  (199) 
ELISA Assay: An enzyme-linked immunosorbant assay (ELISA) was used to assess TrkA kinase activity in the presence of inhibitors. Immulon 4HBX 384-well microtiter plates (Thermo part #8755) were coated with a 0.025 mg/mL solution of poly (Glu, Ala, Tyr; 6:3:1; Sigma P3899). Various concentrations of test compound, 2.5 nM TrkA (Invitrogen Corp., histidine-tagged recombinant human TrkA, cytoplasmic domain), and 500 uM ATP were incubated for 25 minutes at ambient temperature in the coated plates while shaking. The assay buffer consisted of 25 mM MOPS pH 7.5, 0.005% (v/v) Triton X-100 and 5 mM MgCl2. The reaction mixture was removed from the plate by washing with PBS containing 0.1% (v/v) Tween 20. The phosphorylated reaction product was detected using 0.2 ug/mL of a phosphotyrosine specific monoclonal antibody (clone PY20) conjugated to horseradish peroxidase in conjunction with the TMB Peroxidase Substrate System (KPL).

>  <BAO Format ID>  (199) 
BAO_0000357

>  <BAO Label>  (199) 
single protein format

>  <Assay Organism>  (199) 
None

>  <Target ChEMBL ID>  (199) 
CHEMBL2815

>  <Target Name>  (199) 
Nerve growth factor receptor Trk-A

>  <Target Organism>  (199) 
Homo sapiens

>  <Target Type>  (199) 
SINGLE PROTEIN

>  <Document ChEMBL ID>  (199) 
CHEMBL3886151

>  <Source Description>  (199) 
BindingDB Database

>  <Document Journal>  (199) 
nan

>  <Document Year>  (199) 
2014.0

>  <Active>  (199) 
1.0

>  <bits>  (199) 
<rdkit.DataStructs.cDataStructs.ExplicitBitVect object at 0x00000159F6034CF0>

>  <Group>  (199) 
G2

$$$$

     RDKit          2D

 36 40  0  0  0  0  0  0  0  0999 V2000
   -7.9882  -15.8540    0.0000 C   0  0  0  0  0  0  0  0  0  0  0  0
   -6.5616  -15.3904    0.0000 O   0  0  0  0  0  0  0  0  0  0  0  0
   -6.2498  -13.9232    0.0000 C   0  0  0  0  0  0  0  0  0  0  0  0
   -7.3645  -12.9195    0.0000 C   0  0  0  0  0  0  0  0  0  0  0  0
   -7.0526  -11.4523    0.0000 C   0  0  0  0  0  0  0  0  0  0  0  0
   -5.6260  -10.9888    0.0000 C   0  0  0  0  0  0  0  0  0  0  0  0
   -5.3142   -9.5216    0.0000 C   0  0  0  0  0  0  0  0  0  0  0  0
   -3.8876   -9.0580    0.0000 O   0  0  0  0  0  0  0  0  0  0  0  0
   -3.5757   -7.5908    0.0000 C   0  0  0  0  0  0  0  0  0  0  0  0
   -2.1491   -7.1273    0.0000 C   0  0  0  0  0  0  0  0  0  0  0  0
   -1.8373   -5.6601    0.0000 C   0  0  0  0  0  0  0  0  0  0  0  0
   -2.9520   -4.6564    0.0000 C   0  0  0  0  0  0  0  0  0  0  0  0
   -2.6401   -3.1891    0.0000 C   0  0  0  0  0  0  0  0  0  0  0  0
   -3.7548   -2.1855    0.0000 C   0  0  0  0  0  0  0  0  0  0  0  0
   -1.2135   -2.7256    0.0000 N   0  0  0  0  0  0  0  0  0  0  0  0
   -0.0000   -3.6073    0.0000 C   0  0  0  0  0  0  0  0  0  0  0  0
    0.0000   -5.1073    0.0000 N   0  0  0  0  0  0  0  0  0  0  0  0
    1.2135   -2.7256    0.0000 N   0  0  0  0  0  0  0  0  0  0  0  0
    0.7500   -1.2990    0.0000 C   0  0  0  0  0  0  0  0  0  0  0  0
    1.5000    0.0000    0.0000 C   0  0  0  0  0  0  0  0  0  0  0  0
    0.7500    1.2990    0.0000 C   0  0  0  0  0  0  0  0  0  0  0  0
    1.5000    2.5981    0.0000 C   0  0  0  0  0  0  0  0  0  0  0  0
    0.8899    3.9684    0.0000 C   0  0  0  0  0  0  0  0  0  0  0  0
    2.0046    4.9721    0.0000 N   0  0  0  0  0  0  0  0  0  0  0  0
    3.3037    4.2221    0.0000 N   0  0  0  0  0  0  0  0  0  0  0  0
    4.6740    4.8322    0.0000 C   0  0  0  0  0  0  0  0  0  0  0  0
    2.9918    2.7549    0.0000 C   0  0  0  0  0  0  0  0  0  0  0  0
   -0.7500    1.2990    0.0000 C   0  0  0  0  0  0  0  0  0  0  0  0
   -1.5000    0.0000    0.0000 C   0  0  0  0  0  0  0  0  0  0  0  0
   -0.7500   -1.2990    0.0000 C   0  0  0  0  0  0  0  0  0  0  0  0
   -4.3786   -5.1199    0.0000 C   0  0  0  0  0  0  0  0  0  0  0  0
   -4.6904   -6.5871    0.0000 C   0  0  0  0  0  0  0  0  0  0  0  0
   -6.1170   -7.0506    0.0000 O   0  0  0  0  0  0  0  0  0  0  0  0
   -7.2317   -6.0469    0.0000 C   0  0  0  0  0  0  0  0  0  0  0  0
   -4.5113  -11.9925    0.0000 C   0  0  0  0  0  0  0  0  0  0  0  0
   -4.8232  -13.4597    0.0000 N   0  0  0  0  0  0  0  0  0  0  0  0
  1  2  1  0
  2  3  1  0
  3  4  2  0
  4  5  1  0
  5  6  2  0
  6  7  1  0
  7  8  1  0
  8  9  1  0
  9 10  2  0
 10 11  1  0
 11 12  2  0
 12 13  1  0
 13 14  1  0
 13 15  1  0
 15 16  1  0
 16 17  1  0
 16 18  2  0
 18 19  1  0
 19 20  2  0
 20 21  1  0
 21 22  1  0
 22 23  1  0
 23 24  2  0
 24 25  1  0
 25 26  1  0
 25 27  1  0
 21 28  2  0
 28 29  1  0
 29 30  2  0
 12 31  1  0
 31 32  2  0
 32 33  1  0
 33 34  1  0
  6 35  1  0
 35 36  2  0
 36  3  1  0
 32  9  1  0
 30 15  1  0
 30 19  1  0
 27 22  2  0
M  END
>  <Compound_ID>  (200) 
CHEMBL3678292

>  <Molecule Name>  (200) 
nan

>  <Molecular Weight>  (200) 
484.56

>  <AlogP>  (200) 
4.62

>  <Smiles>  (200) 
COc1ccc(COc2ccc(C(C)n3c(N)nc4cc(-c5cnn(C)c5)ccc43)cc2OC)cn1

>  <Standard Type>  (200) 
IC50

>  <Standard Relation>  (200) 
'='

>  <Standard Units>  (200) 
nM

>  <Standard Value>  (200) 
3.0

>  <Assay ChEMBL ID>  (200) 
CHEMBL3887112

>  <Assay Description>  (200) 
Inhibition Assay: Reagents and consumables were purchased from Sigma Aldrich, Carna Biosciences, or Caliper Life Sciences. All assay reaction conditions for IC50 determinations were within the linear range with respect to time and enzyme concentration. In a 384 well polypropylene plate, TrkA (0.4 nM, Carna 08-186) was pre-incubated in a 100 mM Hepes-NaOH pH 7.5 buffer containing 0.01% Triton X-100, 10 mM MgCl2, 0.1% BSA, 1 mM DTT, 10 uM sodium orthovanadate and 10 uM beta-glycerophosphate and compound with a concentration of 2.5% DMSO for 15 minutes at room temperature. The reaction was initiated with an equal volume of peptide substrate (Caliper Life Sciences catalog no. 760430) and ATP in the aforementioned buffer. The final concentrations in the reaction were 200 pM TrkA, 1.5 uM peptide substrate and 55 uM ATP (ATP Km). The reaction was incubated at room temperature for 180 minutes and terminated with a buffer containing excess EDTA (100 mM Hepes-NaOH pH 7.5, 0.02% Brij.

>  <BAO Format ID>  (200) 
BAO_0000357

>  <BAO Label>  (200) 
single protein format

>  <Assay Organism>  (200) 
None

>  <Target ChEMBL ID>  (200) 
CHEMBL2815

>  <Target Name>  (200) 
Nerve growth factor receptor Trk-A

>  <Target Organism>  (200) 
Homo sapiens

>  <Target Type>  (200) 
SINGLE PROTEIN

>  <Document ChEMBL ID>  (200) 
CHEMBL3638818

>  <Source Description>  (200) 
BindingDB Database

>  <Document Journal>  (200) 
nan

>  <Document Year>  (200) 
2015.0

>  <Active>  (200) 
1.0

>  <bits>  (200) 
<rdkit.DataStructs.cDataStructs.ExplicitBitVect object at 0x00000159F6035690>

>  <Group>  (200) 
G2

$$$$

     RDKit          2D

 31 35  0  0  0  0  0  0  0  0999 V2000
   -1.8373   -5.6601    0.0000 O   0  0  0  0  0  0  0  0  0  0  0  0
   -2.9520   -4.6564    0.0000 C   0  0  0  0  0  0  0  0  0  0  0  0
   -2.6401   -3.1891    0.0000 N   0  0  0  0  0  0  0  0  0  0  0  0
   -1.2135   -2.7256    0.0000 C   0  0  0  0  0  0  0  0  0  0  0  0
   -0.0000   -3.6073    0.0000 C   0  0  0  0  0  0  0  0  0  0  0  0
    1.2135   -2.7256    0.0000 N   0  0  0  0  0  0  0  0  0  0  0  0
    0.7500   -1.2990    0.0000 N   0  0  0  0  0  0  0  0  0  0  0  0
    1.5000    0.0000    0.0000 C   0  0  0  0  0  0  0  0  0  0  0  0
    0.7500    1.2990    0.0000 C   0  0  0  0  0  0  0  0  0  0  0  0
   -0.7500    1.2990    0.0000 C   0  0  0  0  0  0  0  0  0  0  0  0
   -1.5000    2.5981    0.0000 N   0  0  0  0  0  0  0  0  0  0  0  0
   -2.9918    2.7549    0.0000 C   0  0  0  0  0  0  0  0  0  0  0  0
   -3.3037    4.2221    0.0000 C   0  0  0  0  0  0  0  0  0  0  0  0
   -4.7302    3.7586    0.0000 F   0  0  0  0  0  0  0  0  0  0  0  0
   -3.9138    5.5924    0.0000 F   0  0  0  0  0  0  0  0  0  0  0  0
   -2.0046    4.9721    0.0000 C   0  0  0  0  0  0  0  0  0  0  0  0
   -0.8899    3.9684    0.0000 C   0  0  0  0  0  0  0  0  0  0  0  0
    0.5773    4.2803    0.0000 C   0  0  0  0  0  0  0  0  0  0  0  0
    1.5810    3.1655    0.0000 C   0  0  0  0  0  0  0  0  0  0  0  0
    3.0482    3.4774    0.0000 C   0  0  0  0  0  0  0  0  0  0  0  0
    3.5118    4.9040    0.0000 C   0  0  0  0  0  0  0  0  0  0  0  0
    2.5081    6.0187    0.0000 C   0  0  0  0  0  0  0  0  0  0  0  0
    2.9716    7.4453    0.0000 F   0  0  0  0  0  0  0  0  0  0  0  0
    1.0409    5.7068    0.0000 C   0  0  0  0  0  0  0  0  0  0  0  0
   -1.5000    0.0000    0.0000 N   0  0  0  0  0  0  0  0  0  0  0  0
   -0.7500   -1.2990    0.0000 C   0  0  0  0  0  0  0  0  0  0  0  0
   -4.3786   -5.1199    0.0000 N   0  0  0  0  0  0  0  0  0  0  0  0
   -5.7151   -4.4389    0.0000 C   0  0  0  0  0  0  0  0  0  0  0  0
   -6.3961   -5.7754    0.0000 C   0  0  0  0  0  0  0  0  0  0  0  0
   -7.8226   -6.2389    0.0000 O   0  0  0  0  0  0  0  0  0  0  0  0
   -5.0595   -6.4564    0.0000 C   0  0  0  0  0  0  0  0  0  0  0  0
  1  2  2  0
  2  3  1  0
  3  4  1  0
  4  5  1  0
  5  6  2  0
  6  7  1  0
  7  8  1  0
  8  9  2  0
  9 10  1  0
 10 11  1  0
 11 12  1  0
 12 13  1  0
 13 14  1  0
 13 15  1  0
 13 16  1  0
 16 17  1  0
 17 18  1  6
 18 19  2  0
 19 20  1  0
 20 21  2  0
 21 22  1  0
 22 23  1  0
 22 24  2  0
 10 25  2  0
 25 26  1  0
  2 27  1  0
 27 28  1  0
 28 29  1  0
 29 30  1  0
 29 31  1  0
 26  4  2  0
 31 27  1  0
 26  7  1  0
 17 11  1  0
 24 18  1  0
M  END
>  <Compound_ID>  (201) 
CHEMBL4108447

>  <Molecule Name>  (201) 
nan

>  <Molecular Weight>  (201) 
432.41

>  <AlogP>  (201) 
2.66

>  <Smiles>  (201) 
O=C(Nc1cnn2ccc(N3CC(F)(F)C[C@@H]3c3cccc(F)c3)nc12)N1CC(O)C1

>  <Standard Type>  (201) 
IC50

>  <Standard Relation>  (201) 
'='

>  <Standard Units>  (201) 
nM

>  <Standard Value>  (201) 
77.5

>  <Assay ChEMBL ID>  (201) 
CHEMBL3887076

>  <Assay Description>  (201) 
ELISA Assay: An enzyme-linked immunosorbant assay (ELISA) was used to assess TrkA kinase activity in the presence of inhibitors. Immulon 4HBX 384-well microtiter plates (Thermo part #8755) were coated with a 0.025 mg/mL solution of poly (Glu, Ala, Tyr; 6:3:1; Sigma P3899). Various concentrations of test compound, 2.5 nM TrkA (Invitrogen Corp., histidine-tagged recombinant human TrkA, cytoplasmic domain), and 500 uM ATP were incubated for 25 minutes at ambient temperature in the coated plates while shaking. The assay buffer consisted of 25 mM MOPS pH 7.5, 0.005% (v/v) Triton X-100 and 5 mM MgCl2. The reaction mixture was removed from the plate by washing with PBS containing 0.1% (v/v) Tween 20. The phosphorylated reaction product was detected using 0.2 ug/mL of a phosphotyrosine specific monoclonal antibody (clone PY20) conjugated to horseradish peroxidase in conjunction with the TMB Peroxidase Substrate System (KPL).

>  <BAO Format ID>  (201) 
BAO_0000357

>  <BAO Label>  (201) 
single protein format

>  <Assay Organism>  (201) 
None

>  <Target ChEMBL ID>  (201) 
CHEMBL2815

>  <Target Name>  (201) 
Nerve growth factor receptor Trk-A

>  <Target Organism>  (201) 
Homo sapiens

>  <Target Type>  (201) 
SINGLE PROTEIN

>  <Document ChEMBL ID>  (201) 
CHEMBL3886151

>  <Source Description>  (201) 
BindingDB Database

>  <Document Journal>  (201) 
nan

>  <Document Year>  (201) 
2014.0

>  <Active>  (201) 
1.0

>  <bits>  (201) 
<rdkit.DataStructs.cDataStructs.ExplicitBitVect object at 0x00000159F6034200>

>  <Group>  (201) 
G2

$$$$

     RDKit          2D

 32 36  0  0  0  0  0  0  0  0999 V2000
   -1.8373   -5.6601    0.0000 O   0  0  0  0  0  0  0  0  0  0  0  0
   -2.9520   -4.6564    0.0000 C   0  0  0  0  0  0  0  0  0  0  0  0
   -2.6401   -3.1891    0.0000 N   0  0  0  0  0  0  0  0  0  0  0  0
   -1.2135   -2.7256    0.0000 C   0  0  0  0  0  0  0  0  0  0  0  0
   -0.0000   -3.6073    0.0000 C   0  0  0  0  0  0  0  0  0  0  0  0
    1.2135   -2.7256    0.0000 N   0  0  0  0  0  0  0  0  0  0  0  0
    0.7500   -1.2990    0.0000 N   0  0  0  0  0  0  0  0  0  0  0  0
    1.5000    0.0000    0.0000 C   0  0  0  0  0  0  0  0  0  0  0  0
    0.7500    1.2990    0.0000 C   0  0  0  0  0  0  0  0  0  0  0  0
   -0.7500    1.2990    0.0000 C   0  0  0  0  0  0  0  0  0  0  0  0
   -1.5000    2.5981    0.0000 N   0  0  0  0  0  0  0  0  0  0  0  0
   -2.9918    2.7549    0.0000 C   0  0  0  0  0  0  0  0  0  0  0  0
   -3.3037    4.2221    0.0000 C   0  0  0  0  0  0  0  0  0  0  0  0
   -2.0046    4.9721    0.0000 C   0  0  0  0  0  0  0  0  0  0  0  0
   -0.8899    3.9684    0.0000 C   0  0  0  0  0  0  0  0  0  0  0  0
    0.5773    4.2803    0.0000 C   0  0  0  0  0  0  0  0  0  0  0  0
    1.5810    3.1655    0.0000 C   0  0  0  0  0  0  0  0  0  0  0  0
    3.0482    3.4774    0.0000 C   0  0  0  0  0  0  0  0  0  0  0  0
    4.0519    2.3627    0.0000 F   0  0  0  0  0  0  0  0  0  0  0  0
    3.5118    4.9040    0.0000 C   0  0  0  0  0  0  0  0  0  0  0  0
    2.5081    6.0187    0.0000 C   0  0  0  0  0  0  0  0  0  0  0  0
    1.0409    5.7068    0.0000 C   0  0  0  0  0  0  0  0  0  0  0  0
    0.0372    6.8216    0.0000 F   0  0  0  0  0  0  0  0  0  0  0  0
   -1.5000    0.0000    0.0000 N   0  0  0  0  0  0  0  0  0  0  0  0
   -0.7500   -1.2990    0.0000 C   0  0  0  0  0  0  0  0  0  0  0  0
   -4.3786   -5.1199    0.0000 C   0  0  0  0  0  0  0  0  0  0  0  0
   -5.4933   -4.1162    0.0000 C   0  0  0  0  0  0  0  0  0  0  0  0
   -6.9199   -4.5797    0.0000 C   0  0  0  0  0  0  0  0  0  0  0  0
   -7.2317   -6.0469    0.0000 C   0  0  0  0  0  0  0  0  0  0  0  0
   -6.1170   -7.0506    0.0000 C   0  0  0  0  0  0  0  0  0  0  0  0
   -6.4289   -8.5179    0.0000 Cl  0  0  0  0  0  0  0  0  0  0  0  0
   -4.6904   -6.5871    0.0000 N   0  0  0  0  0  0  0  0  0  0  0  0
  1  2  2  0
  2  3  1  0
  3  4  1  0
  4  5  1  0
  5  6  2  0
  6  7  1  0
  7  8  1  0
  8  9  2  0
  9 10  1  0
 10 11  1  0
 11 12  1  0
 12 13  1  0
 13 14  1  0
 14 15  1  0
 15 16  1  6
 16 17  2  0
 17 18  1  0
 18 19  1  0
 18 20  2  0
 20 21  1  0
 21 22  2  0
 22 23  1  0
 10 24  2  0
 24 25  1  0
  2 26  1  0
 26 27  2  0
 27 28  1  0
 28 29  2  0
 29 30  1  0
 30 31  1  0
 30 32  2  0
 25  4  2  0
 32 26  1  0
 25  7  1  0
 15 11  1  0
 22 16  1  0
M  END
>  <Compound_ID>  (202) 
CHEMBL4114000

>  <Molecule Name>  (202) 
nan

>  <Molecular Weight>  (202) 
454.87

>  <AlogP>  (202) 
4.65

>  <Smiles>  (202) 
O=C(Nc1cnn2ccc(N3CCC[C@@H]3c3cc(F)ccc3F)nc12)c1cccc(Cl)n1

>  <Standard Type>  (202) 
IC50

>  <Standard Relation>  (202) 
'='

>  <Standard Units>  (202) 
nM

>  <Standard Value>  (202) 
3.5

>  <Assay ChEMBL ID>  (202) 
CHEMBL3887076

>  <Assay Description>  (202) 
ELISA Assay: An enzyme-linked immunosorbant assay (ELISA) was used to assess TrkA kinase activity in the presence of inhibitors. Immulon 4HBX 384-well microtiter plates (Thermo part #8755) were coated with a 0.025 mg/mL solution of poly (Glu, Ala, Tyr; 6:3:1; Sigma P3899). Various concentrations of test compound, 2.5 nM TrkA (Invitrogen Corp., histidine-tagged recombinant human TrkA, cytoplasmic domain), and 500 uM ATP were incubated for 25 minutes at ambient temperature in the coated plates while shaking. The assay buffer consisted of 25 mM MOPS pH 7.5, 0.005% (v/v) Triton X-100 and 5 mM MgCl2. The reaction mixture was removed from the plate by washing with PBS containing 0.1% (v/v) Tween 20. The phosphorylated reaction product was detected using 0.2 ug/mL of a phosphotyrosine specific monoclonal antibody (clone PY20) conjugated to horseradish peroxidase in conjunction with the TMB Peroxidase Substrate System (KPL).

>  <BAO Format ID>  (202) 
BAO_0000357

>  <BAO Label>  (202) 
single protein format

>  <Assay Organism>  (202) 
None

>  <Target ChEMBL ID>  (202) 
CHEMBL2815

>  <Target Name>  (202) 
Nerve growth factor receptor Trk-A

>  <Target Organism>  (202) 
Homo sapiens

>  <Target Type>  (202) 
SINGLE PROTEIN

>  <Document ChEMBL ID>  (202) 
CHEMBL3886151

>  <Source Description>  (202) 
BindingDB Database

>  <Document Journal>  (202) 
nan

>  <Document Year>  (202) 
2014.0

>  <Active>  (202) 
1.0

>  <bits>  (202) 
<rdkit.DataStructs.cDataStructs.ExplicitBitVect object at 0x00000159F6035540>

>  <Group>  (202) 
G2

$$$$

     RDKit          2D

 32 36  0  0  0  0  0  0  0  0999 V2000
   -7.2861   -2.4187    0.0000 C   0  0  0  0  0  0  0  0  0  0  0  0
   -6.5819   -3.7431    0.0000 O   0  0  0  0  0  0  0  0  0  0  0  0
   -5.0828   -3.7955    0.0000 C   0  0  0  0  0  0  0  0  0  0  0  0
   -4.2879   -2.5234    0.0000 O   0  0  0  0  0  0  0  0  0  0  0  0
   -4.3786   -5.1199    0.0000 C   0  0  0  0  0  0  0  0  0  0  0  0
   -2.9520   -4.6564    0.0000 C   0  0  0  0  0  0  0  0  0  0  0  0
   -1.8373   -5.6601    0.0000 O   0  0  0  0  0  0  0  0  0  0  0  0
   -2.6401   -3.1891    0.0000 N   0  0  0  0  0  0  0  0  0  0  0  0
   -1.2135   -2.7256    0.0000 C   0  0  0  0  0  0  0  0  0  0  0  0
   -0.0000   -3.6073    0.0000 C   0  0  0  0  0  0  0  0  0  0  0  0
    1.2135   -2.7256    0.0000 N   0  0  0  0  0  0  0  0  0  0  0  0
    0.7500   -1.2990    0.0000 N   0  0  0  0  0  0  0  0  0  0  0  0
    1.5000    0.0000    0.0000 C   0  0  0  0  0  0  0  0  0  0  0  0
    0.7500    1.2990    0.0000 C   0  0  0  0  0  0  0  0  0  0  0  0
   -0.7500    1.2990    0.0000 C   0  0  0  0  0  0  0  0  0  0  0  0
   -1.5000    2.5981    0.0000 N   0  0  0  0  0  0  0  0  0  0  0  0
   -2.9918    2.7549    0.0000 C   0  0  0  0  0  0  0  0  0  0  0  0
   -3.3037    4.2221    0.0000 C   0  0  0  0  0  0  0  0  0  0  0  0
   -2.0046    4.9721    0.0000 C   0  0  0  0  0  0  0  0  0  0  0  0
   -0.8899    3.9684    0.0000 C   0  0  0  0  0  0  0  0  0  0  0  0
    0.5773    4.2803    0.0000 C   0  0  0  0  0  0  0  0  0  0  0  0
    1.5810    3.1655    0.0000 C   0  0  0  0  0  0  0  0  0  0  0  0
    3.0482    3.4774    0.0000 C   0  0  0  0  0  0  0  0  0  0  0  0
    4.0519    2.3627    0.0000 F   0  0  0  0  0  0  0  0  0  0  0  0
    3.5118    4.9040    0.0000 C   0  0  0  0  0  0  0  0  0  0  0  0
    2.5081    6.0187    0.0000 C   0  0  0  0  0  0  0  0  0  0  0  0
    1.0409    5.7068    0.0000 C   0  0  0  0  0  0  0  0  0  0  0  0
    0.0372    6.8216    0.0000 F   0  0  0  0  0  0  0  0  0  0  0  0
   -1.5000    0.0000    0.0000 N   0  0  0  0  0  0  0  0  0  0  0  0
   -0.7500   -1.2990    0.0000 C   0  0  0  0  0  0  0  0  0  0  0  0
   -5.5606   -6.0434    0.0000 C   0  0  0  0  0  0  0  0  0  0  0  0
   -4.1698   -6.6053    0.0000 C   0  0  0  0  0  0  0  0  0  0  0  0
  1  2  1  0
  2  3  1  0
  3  4  2  0
  3  5  1  0
  5  6  1  0
  6  7  2  0
  6  8  1  0
  8  9  1  0
  9 10  1  0
 10 11  2  0
 11 12  1  0
 12 13  1  0
 13 14  2  0
 14 15  1  0
 15 16  1  0
 16 17  1  0
 17 18  1  0
 18 19  1  0
 19 20  1  0
 20 21  1  6
 21 22  2  0
 22 23  1  0
 23 24  1  0
 23 25  2  0
 25 26  1  0
 26 27  2  0
 27 28  1  0
 15 29  2  0
 29 30  1  0
  5 31  1  0
 31 32  1  0
 32  5  1  0
 30  9  2  0
 30 12  1  0
 20 16  1  0
 27 21  1  0
M  END
>  <Compound_ID>  (203) 
CHEMBL4111269

>  <Molecule Name>  (203) 
nan

>  <Molecular Weight>  (203) 
441.44

>  <AlogP>  (203) 
3.24

>  <Smiles>  (203) 
COC(=O)C1(C(=O)Nc2cnn3ccc(N4CCC[C@@H]4c4cc(F)ccc4F)nc23)CC1

>  <Standard Type>  (203) 
IC50

>  <Standard Relation>  (203) 
'='

>  <Standard Units>  (203) 
nM

>  <Standard Value>  (203) 
4.7

>  <Assay ChEMBL ID>  (203) 
CHEMBL3887076

>  <Assay Description>  (203) 
ELISA Assay: An enzyme-linked immunosorbant assay (ELISA) was used to assess TrkA kinase activity in the presence of inhibitors. Immulon 4HBX 384-well microtiter plates (Thermo part #8755) were coated with a 0.025 mg/mL solution of poly (Glu, Ala, Tyr; 6:3:1; Sigma P3899). Various concentrations of test compound, 2.5 nM TrkA (Invitrogen Corp., histidine-tagged recombinant human TrkA, cytoplasmic domain), and 500 uM ATP were incubated for 25 minutes at ambient temperature in the coated plates while shaking. The assay buffer consisted of 25 mM MOPS pH 7.5, 0.005% (v/v) Triton X-100 and 5 mM MgCl2. The reaction mixture was removed from the plate by washing with PBS containing 0.1% (v/v) Tween 20. The phosphorylated reaction product was detected using 0.2 ug/mL of a phosphotyrosine specific monoclonal antibody (clone PY20) conjugated to horseradish peroxidase in conjunction with the TMB Peroxidase Substrate System (KPL).

>  <BAO Format ID>  (203) 
BAO_0000357

>  <BAO Label>  (203) 
single protein format

>  <Assay Organism>  (203) 
None

>  <Target ChEMBL ID>  (203) 
CHEMBL2815

>  <Target Name>  (203) 
Nerve growth factor receptor Trk-A

>  <Target Organism>  (203) 
Homo sapiens

>  <Target Type>  (203) 
SINGLE PROTEIN

>  <Document ChEMBL ID>  (203) 
CHEMBL3886151

>  <Source Description>  (203) 
BindingDB Database

>  <Document Journal>  (203) 
nan

>  <Document Year>  (203) 
2014.0

>  <Active>  (203) 
1.0

>  <bits>  (203) 
<rdkit.DataStructs.cDataStructs.ExplicitBitVect object at 0x00000159F6034740>

>  <Group>  (203) 
G2

$$$$

     RDKit          2D

 42 46  0  0  0  0  0  0  0  0999 V2000
    3.0000    0.0000    0.0000 C   0  0  0  0  0  0  0  0  0  0  0  0
    1.5000    0.0000    0.0000 N   0  0  0  0  0  0  0  0  0  0  0  0
    0.7500   -1.2990    0.0000 C   0  0  0  0  0  0  0  0  0  0  0  0
   -0.7500   -1.2990    0.0000 C   0  0  0  0  0  0  0  0  0  0  0  0
   -1.5000    0.0000    0.0000 N   0  0  0  0  0  0  0  0  0  0  0  0
   -3.0000    0.0000    0.0000 C   0  0  0  0  0  0  0  0  0  0  0  0
   -3.7500    1.2990    0.0000 C   0  0  0  0  0  0  0  0  0  0  0  0
   -5.2500    1.2990    0.0000 C   0  0  0  0  0  0  0  0  0  0  0  0
   -6.0000    0.0000    0.0000 C   0  0  0  0  0  0  0  0  0  0  0  0
   -7.5000    0.0000    0.0000 N   0  0  0  0  0  0  0  0  0  0  0  0
   -8.2500    1.2990    0.0000 C   0  0  0  0  0  0  0  0  0  0  0  0
   -7.5000    2.5981    0.0000 O   0  0  0  0  0  0  0  0  0  0  0  0
   -9.7500    1.2990    0.0000 C   0  0  0  0  0  0  0  0  0  0  0  0
  -10.6317    0.0855    0.0000 C   0  0  0  0  0  0  0  0  0  0  0  0
  -12.0583    0.5490    0.0000 C   0  0  0  0  0  0  0  0  0  0  0  0
  -12.0583    2.0490    0.0000 C   0  0  0  0  0  0  0  0  0  0  0  0
  -10.6317    2.5126    0.0000 N   0  0  0  0  0  0  0  0  0  0  0  0
  -10.1682    3.9391    0.0000 C   0  0  0  0  0  0  0  0  0  0  0  0
   -8.7009    4.2510    0.0000 N   0  0  0  0  0  0  0  0  0  0  0  0
   -8.2374    5.6776    0.0000 C   0  0  0  0  0  0  0  0  0  0  0  0
   -6.7702    5.9895    0.0000 N   0  0  0  0  0  0  0  0  0  0  0  0
   -6.3067    7.4161    0.0000 C   0  0  0  0  0  0  0  0  0  0  0  0
   -4.8394    7.7279    0.0000 C   0  0  0  0  0  0  0  0  0  0  0  0
   -4.3759    9.1545    0.0000 C   0  0  0  0  0  0  0  0  0  0  0  0
   -2.9087    9.4664    0.0000 F   0  0  0  0  0  0  0  0  0  0  0  0
   -5.3796   10.2692    0.0000 C   0  0  0  0  0  0  0  0  0  0  0  0
   -6.8468    9.9574    0.0000 C   0  0  0  0  0  0  0  0  0  0  0  0
   -7.8505   11.0721    0.0000 F   0  0  0  0  0  0  0  0  0  0  0  0
   -7.3104    8.5308    0.0000 C   0  0  0  0  0  0  0  0  0  0  0  0
   -9.2411    6.7923    0.0000 N   0  0  0  0  0  0  0  0  0  0  0  0
  -10.7083    6.4805    0.0000 C   0  0  0  0  0  0  0  0  0  0  0  0
  -11.1718    5.0539    0.0000 C   0  0  0  0  0  0  0  0  0  0  0  0
  -12.6391    4.7420    0.0000 Cl  0  0  0  0  0  0  0  0  0  0  0  0
   -5.2500   -1.2990    0.0000 C   0  0  0  0  0  0  0  0  0  0  0  0
   -3.7500   -1.2990    0.0000 C   0  0  0  0  0  0  0  0  0  0  0  0
   -3.0000   -2.5981    0.0000 C   0  0  0  0  0  0  0  0  0  0  0  0
   -1.5000   -2.5981    0.0000 O   0  0  0  0  0  0  0  0  0  0  0  0
   -3.7500   -3.8971    0.0000 N   0  0  0  0  0  0  0  0  0  0  0  0
   -3.0000   -5.1962    0.0000 C   0  0  0  0  0  0  0  0  0  0  0  0
   -5.2500   -3.8971    0.0000 C   0  0  0  0  0  0  0  0  0  0  0  0
   -0.7500    1.2990    0.0000 C   0  0  0  0  0  0  0  0  0  0  0  0
    0.7500    1.2990    0.0000 C   0  0  0  0  0  0  0  0  0  0  0  0
  1  2  1  0
  2  3  1  0
  3  4  1  0
  4  5  1  0
  5  6  1  0
  6  7  2  0
  7  8  1  0
  8  9  2  0
  9 10  1  0
 10 11  1  0
 11 12  2  0
 13 11  1  6
 13 14  1  0
 14 15  1  0
 15 16  1  0
 16 17  1  0
 17 18  1  0
 18 19  2  0
 19 20  1  0
 20 21  1  0
 21 22  1  0
 22 23  2  0
 23 24  1  0
 24 25  1  0
 24 26  2  0
 26 27  1  0
 27 28  1  0
 27 29  2  0
 20 30  2  0
 30 31  1  0
 31 32  2  0
 32 33  1  0
  9 34  1  0
 34 35  2  0
 35 36  1  0
 36 37  2  0
 36 38  1  0
 38 39  1  0
 38 40  1  0
  5 41  1  0
 41 42  1  0
 42  2  1  0
 35  6  1  0
 17 13  1  0
 32 18  1  0
 29 22  1  0
M  END
>  <Compound_ID>  (204) 
CHEMBL4853913

>  <Molecule Name>  (204) 
nan

>  <Molecular Weight>  (204) 
599.09

>  <AlogP>  (204) 
4.21

>  <Smiles>  (204) 
CN1CCN(c2ccc(NC(=O)[C@@H]3CCCN3c3nc(Nc4cc(F)cc(F)c4)ncc3Cl)cc2C(=O)N(C)C)CC1

>  <Standard Type>  (204) 
IC50

>  <Standard Relation>  (204) 
'='

>  <Standard Units>  (204) 
nM

>  <Standard Value>  (204) 
6.4

>  <Assay ChEMBL ID>  (204) 
CHEMBL4811213

>  <Assay Description>  (204) 
Inhibition of human TRKA assessed as decreased enzymatic reactions measured after 1 hr by mobility shift assay

>  <BAO Format ID>  (204) 
BAO_0000357

>  <BAO Label>  (204) 
single protein format

>  <Assay Organism>  (204) 
Homo sapiens

>  <Target ChEMBL ID>  (204) 
CHEMBL2815

>  <Target Name>  (204) 
Nerve growth factor receptor Trk-A

>  <Target Organism>  (204) 
Homo sapiens

>  <Target Type>  (204) 
SINGLE PROTEIN

>  <Document ChEMBL ID>  (204) 
CHEMBL4808257

>  <Source Description>  (204) 
Scientific Literature

>  <Document Journal>  (204) 
Bioorg Med Chem

>  <Document Year>  (204) 
2021.0

>  <Active>  (204) 
1.0

>  <bits>  (204) 
<rdkit.DataStructs.cDataStructs.ExplicitBitVect object at 0x00000159F60374C0>

>  <Group>  (204) 
G2

$$$$

     RDKit          2D

 29 33  0  0  0  0  0  0  0  0999 V2000
    5.9262   -3.3786    0.0000 C   0  0  0  0  0  0  0  0  0  0  0  0
    5.4627   -1.9520    0.0000 C   0  0  0  0  0  0  0  0  0  0  0  0
    6.4664   -0.8373    0.0000 N   0  0  0  0  0  0  0  0  0  0  0  0
    6.0029    0.5893    0.0000 C   0  0  0  0  0  0  0  0  0  0  0  0
    4.5356    0.9012    0.0000 C   0  0  0  0  0  0  0  0  0  0  0  0
    4.0721    2.3277    0.0000 F   0  0  0  0  0  0  0  0  0  0  0  0
    3.5320   -0.2136    0.0000 C   0  0  0  0  0  0  0  0  0  0  0  0
    3.9955   -1.6402    0.0000 C   0  0  0  0  0  0  0  0  0  0  0  0
    2.9918   -2.7549    0.0000 C   0  0  0  0  0  0  0  0  0  0  0  0
    3.3037   -4.2221    0.0000 C   0  0  0  0  0  0  0  0  0  0  0  0
    2.0046   -4.9721    0.0000 C   0  0  0  0  0  0  0  0  0  0  0  0
    0.8899   -3.9684    0.0000 C   0  0  0  0  0  0  0  0  0  0  0  0
    1.5000   -2.5981    0.0000 N   0  0  0  0  0  0  0  0  0  0  0  0
    0.7500   -1.2990    0.0000 C   0  0  0  0  0  0  0  0  0  0  0  0
    1.5000    0.0000    0.0000 C   0  0  0  0  0  0  0  0  0  0  0  0
    0.7500    1.2990    0.0000 C   0  0  0  0  0  0  0  0  0  0  0  0
   -0.7500    1.2990    0.0000 N   0  0  0  0  0  0  0  0  0  0  0  0
   -1.7537    2.4138    0.0000 N   0  0  0  0  0  0  0  0  0  0  0  0
   -3.1240    1.8037    0.0000 C   0  0  0  0  0  0  0  0  0  0  0  0
   -2.9672    0.3119    0.0000 C   0  0  0  0  0  0  0  0  0  0  0  0
   -4.0819   -0.6918    0.0000 C   0  0  0  0  0  0  0  0  0  0  0  0
   -3.7701   -2.1590    0.0000 O   0  0  0  0  0  0  0  0  0  0  0  0
   -5.5085   -0.2283    0.0000 N   0  0  0  0  0  0  0  0  0  0  0  0
   -6.6232   -1.2320    0.0000 C   0  0  0  0  0  0  0  0  0  0  0  0
   -5.8284   -2.5041    0.0000 C   0  0  0  0  0  0  0  0  0  0  0  0
   -8.0140   -1.7939    0.0000 C   0  0  0  0  0  0  0  0  0  0  0  0
   -7.8053   -0.3085    0.0000 C   0  0  0  0  0  0  0  0  0  0  0  0
   -1.5000    0.0000    0.0000 C   0  0  0  0  0  0  0  0  0  0  0  0
   -0.7500   -1.2990    0.0000 N   0  0  0  0  0  0  0  0  0  0  0  0
  1  2  1  0
  2  3  2  0
  3  4  1  0
  4  5  2  0
  5  6  1  0
  5  7  1  0
  7  8  2  0
  8  9  1  0
  9 10  1  0
 10 11  1  0
 11 12  1  0
 12 13  1  0
 13 14  1  0
 14 15  1  0
 15 16  2  0
 16 17  1  0
 17 18  1  0
 18 19  2  0
 19 20  1  0
 20 21  1  0
 21 22  2  0
 21 23  1  0
 23 24  1  0
 24 25  1  0
 24 26  1  0
 26 27  1  0
 20 28  2  0
 28 29  1  0
  8  2  1  0
 13  9  1  0
 29 14  2  0
 28 17  1  0
 27 24  1  0
M  END
>  <Compound_ID>  (205) 
CHEMBL3676058

>  <Molecule Name>  (205) 
nan

>  <Molecular Weight>  (205) 
394.45

>  <AlogP>  (205) 
3.2

>  <Smiles>  (205) 
Cc1ncc(F)cc1C1CCCN1c1ccn2ncc(C(=O)NC3(C)CC3)c2n1

>  <Standard Type>  (205) 
IC50

>  <Standard Relation>  (205) 
'='

>  <Standard Units>  (205) 
nM

>  <Standard Value>  (205) 
2.4

>  <Assay ChEMBL ID>  (205) 
CHEMBL3887070

>  <Assay Description>  (205) 
ELISA Assay: An enzyme-linked immunosorbant assay (ELISA) was used to assess TrkA kinase activity in the presence of inhibitors. Immulon 4HBX 384-well microtiter plates (Thermo part #8755) were coated with a 0.025 mg/mL solution of poly (Glu, Ala, Tyr; 6:3:1; Sigma P3899). Various concentrations of test compound, 2.5 nM TrkA (Invitrogen Corp., histidine-tagged recombinant human TrkA, cytoplasmic domain), and 500 uM ATP were incubated for 25 minutes at ambient temperature in the coated plates while shaking The assay buffer consisted of 25 mM MOPS pH 7.5, 0.005% (v/v) Triton X-100 and 5 mM MgCl2. The reaction mixture was removed from the plate by washing with PBS containing 0.1% (v/v) Tween 20. The phosphorylated reaction product was detected using 0.2 ug/mL of a phosphotyrosine specific monoclonal antibody (clone PY20) conjugated to horseradish peroxidase in conjunction with the TMB Peroxidase Substrate System (KPL).

>  <BAO Format ID>  (205) 
BAO_0000357

>  <BAO Label>  (205) 
single protein format

>  <Assay Organism>  (205) 
None

>  <Target ChEMBL ID>  (205) 
CHEMBL2815

>  <Target Name>  (205) 
Nerve growth factor receptor Trk-A

>  <Target Organism>  (205) 
Homo sapiens

>  <Target Type>  (205) 
SINGLE PROTEIN

>  <Document ChEMBL ID>  (205) 
CHEMBL3638907

>  <Source Description>  (205) 
BindingDB Database

>  <Document Journal>  (205) 
nan

>  <Document Year>  (205) 
2014.0

>  <Active>  (205) 
1.0

>  <bits>  (205) 
<rdkit.DataStructs.cDataStructs.ExplicitBitVect object at 0x00000159F6037680>

>  <Group>  (205) 
G2

$$$$

     RDKit          2D

 37 40  0  0  0  0  0  0  0  0999 V2000
   -1.0496   -9.1759    0.0000 C   0  0  0  0  0  0  0  0  0  0  0  0
    0.3207   -8.5658    0.0000 C   0  0  0  0  0  0  0  0  0  0  0  0
    0.4775   -7.0740    0.0000 C   0  0  0  0  0  0  0  0  0  0  0  0
    1.8478   -6.4639    0.0000 N   0  0  0  0  0  0  0  0  0  0  0  0
    2.0046   -4.9721    0.0000 C   0  0  0  0  0  0  0  0  0  0  0  0
    3.3037   -4.2221    0.0000 N   0  0  0  0  0  0  0  0  0  0  0  0
    2.9918   -2.7549    0.0000 C   0  0  0  0  0  0  0  0  0  0  0  0
    1.5000   -2.5981    0.0000 C   0  0  0  0  0  0  0  0  0  0  0  0
    0.7500   -1.2990    0.0000 C   0  0  0  0  0  0  0  0  0  0  0  0
    1.5000    0.0000    0.0000 C   0  0  0  0  0  0  0  0  0  0  0  0
    0.7500    1.2990    0.0000 C   0  0  0  0  0  0  0  0  0  0  0  0
   -0.7500    1.2990    0.0000 C   0  0  0  0  0  0  0  0  0  0  0  0
   -1.5000    2.5981    0.0000 O   0  0  0  0  0  0  0  0  0  0  0  0
   -0.7500    3.8971    0.0000 C   0  0  0  0  0  0  0  0  0  0  0  0
    0.7500    3.8971    0.0000 N   0  0  0  0  0  0  0  0  0  0  0  0
    1.5000    5.1962    0.0000 C   0  0  0  0  0  0  0  0  0  0  0  0
    0.7500    6.4952    0.0000 C   0  0  0  0  0  0  0  0  0  0  0  0
    1.5000    7.7942    0.0000 N   0  0  0  0  0  0  0  0  0  0  0  0
    3.0000    7.7942    0.0000 C   0  0  0  0  0  0  0  0  0  0  0  0
    3.7500    6.4952    0.0000 O   0  0  0  0  0  0  0  0  0  0  0  0
    3.7500    9.0933    0.0000 N   0  0  0  0  0  0  0  0  0  0  0  0
    5.2500    9.0933    0.0000 C   0  0  0  0  0  0  0  0  0  0  0  0
    6.0000    7.7942    0.0000 C   0  0  0  0  0  0  0  0  0  0  0  0
    7.5000    7.7942    0.0000 C   0  0  0  0  0  0  0  0  0  0  0  0
    8.2500    6.4952    0.0000 C   0  0  0  0  0  0  0  0  0  0  0  0
    9.0000    5.1962    0.0000 F   0  0  0  0  0  0  0  0  0  0  0  0
    6.9510    5.7452    0.0000 F   0  0  0  0  0  0  0  0  0  0  0  0
    9.5490    7.2452    0.0000 F   0  0  0  0  0  0  0  0  0  0  0  0
    8.2500    9.0933    0.0000 C   0  0  0  0  0  0  0  0  0  0  0  0
    7.5000   10.3923    0.0000 C   0  0  0  0  0  0  0  0  0  0  0  0
    6.0000   10.3923    0.0000 C   0  0  0  0  0  0  0  0  0  0  0  0
    5.2500   11.6913    0.0000 Cl  0  0  0  0  0  0  0  0  0  0  0  0
   -0.7500    6.4952    0.0000 C   0  0  0  0  0  0  0  0  0  0  0  0
   -1.5000    5.1962    0.0000 N   0  0  0  0  0  0  0  0  0  0  0  0
   -1.5000    0.0000    0.0000 C   0  0  0  0  0  0  0  0  0  0  0  0
   -0.7500   -1.2990    0.0000 C   0  0  0  0  0  0  0  0  0  0  0  0
    0.8899   -3.9684    0.0000 S   0  0  0  0  0  0  0  0  0  0  0  0
  1  2  1  0
  2  3  1  0
  3  4  1  0
  4  5  1  0
  5  6  2  0
  6  7  1  0
  7  8  2  0
  8  9  1  0
  9 10  2  0
 10 11  1  0
 11 12  2  0
 12 13  1  0
 13 14  1  0
 14 15  2  0
 15 16  1  0
 16 17  2  0
 17 18  1  0
 18 19  1  0
 19 20  2  0
 19 21  1  0
 21 22  1  0
 22 23  2  0
 23 24  1  0
 24 25  1  0
 25 26  1  0
 25 27  1  0
 25 28  1  0
 24 29  2  0
 29 30  1  0
 30 31  2  0
 31 32  1  0
 17 33  1  0
 33 34  2  0
 12 35  1  0
 35 36  2  0
  8 37  1  0
 37  5  1  0
 36  9  1  0
 34 14  1  0
 31 22  1  0
M  END
>  <Compound_ID>  (206) 
CHEMBL3970342

>  <Molecule Name>  (206) 
nan

>  <Molecular Weight>  (206) 
548.98

>  <AlogP>  (206) 
7.53

>  <Smiles>  (206) 
CCCNc1ncc(-c2ccc(Oc3ncc(NC(=O)Nc4cc(C(F)(F)F)ccc4Cl)cn3)cc2)s1

>  <Standard Type>  (206) 
IC50

>  <Standard Relation>  (206) 
'='

>  <Standard Units>  (206) 
nM

>  <Standard Value>  (206) 
20.0

>  <Assay ChEMBL ID>  (206) 
CHEMBL3887906

>  <Assay Description>  (206) 
LanthaScreen Kinase Assay: TrkA-inhibiting activity was measured according to the following method using LanthaScreen kinase assay reagents (Invitrogen; Fluorescein-Poly GT, LanthaScreen Tb-PY20 and TR-FRET Dilution Buffer), TrkA (Invitrogen), ATP (Sigma-Aldrich), a kinase reaction buffer (50 mM HEPES buffer (Sigma-Aldrich) (pH 7.5) containing 0.01% Brij35 (Sigma-Aldrich), 10 mM MgCl2 (Sigma-Aldrich) and 1 mM EGTA (Sigma-Aldrich)) and 0.5 M EDTA (pH 8.0) (Invitrogen).The present compound was dissolved in dimethylsulfoxide (hereinafter abbreviated as DMSO) to prepare a 10 mM solution. The test compound at 10 mM was distributed into a 96-well plate and serially diluted with DMSO with the geometrical ratio of 3. The serial dilutions (DMSO solutions) were diluted with the kinase reaction buffer to 20-fold to prepare solutions of the present compound with 5-times concentrations (DMSO concentration: 5%). TrkA was diluted with the kinase reaction buffer to prepare a solution at 38.5 ng/mL (enzyme solution). Adenosine

>  <BAO Format ID>  (206) 
BAO_0000357

>  <BAO Label>  (206) 
single protein format

>  <Assay Organism>  (206) 
None

>  <Target ChEMBL ID>  (206) 
CHEMBL2815

>  <Target Name>  (206) 
Nerve growth factor receptor Trk-A

>  <Target Organism>  (206) 
Homo sapiens

>  <Target Type>  (206) 
SINGLE PROTEIN

>  <Document ChEMBL ID>  (206) 
CHEMBL3886498

>  <Source Description>  (206) 
BindingDB Database

>  <Document Journal>  (206) 
nan

>  <Document Year>  (206) 
2016.0

>  <Active>  (206) 
1.0

>  <bits>  (206) 
<rdkit.DataStructs.cDataStructs.ExplicitBitVect object at 0x00000159F60365E0>

>  <Group>  (206) 
G2

$$$$

     RDKit          2D

 29 33  0  0  0  0  0  0  0  0999 V2000
   -1.8373   -5.6601    0.0000 O   0  0  0  0  0  0  0  0  0  0  0  0
   -2.9520   -4.6564    0.0000 C   0  0  0  0  0  0  0  0  0  0  0  0
   -2.6401   -3.1891    0.0000 N   0  0  0  0  0  0  0  0  0  0  0  0
   -1.2135   -2.7256    0.0000 C   0  0  0  0  0  0  0  0  0  0  0  0
   -0.0000   -3.6073    0.0000 C   0  0  0  0  0  0  0  0  0  0  0  0
    1.2135   -2.7256    0.0000 N   0  0  0  0  0  0  0  0  0  0  0  0
    0.7500   -1.2990    0.0000 N   0  0  0  0  0  0  0  0  0  0  0  0
    1.5000    0.0000    0.0000 C   0  0  0  0  0  0  0  0  0  0  0  0
    0.7500    1.2990    0.0000 C   0  0  0  0  0  0  0  0  0  0  0  0
   -0.7500    1.2990    0.0000 C   0  0  0  0  0  0  0  0  0  0  0  0
   -1.5000    2.5981    0.0000 N   0  0  0  0  0  0  0  0  0  0  0  0
   -2.9918    2.7549    0.0000 C   0  0  0  0  0  0  0  0  0  0  0  0
   -3.3037    4.2221    0.0000 C   0  0  0  0  0  0  0  0  0  0  0  0
   -2.0046    4.9721    0.0000 C   0  0  0  0  0  0  0  0  0  0  0  0
   -0.8899    3.9684    0.0000 C   0  0  0  0  0  0  0  0  0  0  0  0
    0.5773    4.2803    0.0000 C   0  0  0  0  0  0  0  0  0  0  0  0
    1.5810    3.1655    0.0000 C   0  0  0  0  0  0  0  0  0  0  0  0
    3.0482    3.4774    0.0000 C   0  0  0  0  0  0  0  0  0  0  0  0
    3.5118    4.9040    0.0000 C   0  0  0  0  0  0  0  0  0  0  0  0
    2.5081    6.0187    0.0000 C   0  0  0  0  0  0  0  0  0  0  0  0
    2.9716    7.4453    0.0000 F   0  0  0  0  0  0  0  0  0  0  0  0
    1.0409    5.7068    0.0000 C   0  0  0  0  0  0  0  0  0  0  0  0
   -1.5000    0.0000    0.0000 N   0  0  0  0  0  0  0  0  0  0  0  0
   -0.7500   -1.2990    0.0000 C   0  0  0  0  0  0  0  0  0  0  0  0
   -4.3786   -5.1199    0.0000 C   0  0  0  0  0  0  0  0  0  0  0  0
   -4.8421   -6.5465    0.0000 C   0  0  0  0  0  0  0  0  0  0  0  0
   -6.3421   -6.5465    0.0000 C   0  0  0  0  0  0  0  0  0  0  0  0
   -6.8056   -5.1199    0.0000 N   0  0  0  0  0  0  0  0  0  0  0  0
   -5.5921   -4.2382    0.0000 N   0  0  0  0  0  0  0  0  0  0  0  0
  1  2  2  0
  2  3  1  0
  3  4  1  0
  4  5  1  0
  5  6  2  0
  6  7  1  0
  7  8  1  0
  8  9  2  0
  9 10  1  0
 10 11  1  0
 11 12  1  0
 12 13  1  0
 13 14  1  0
 14 15  1  0
 15 16  1  6
 16 17  2  0
 17 18  1  0
 18 19  2  0
 19 20  1  0
 20 21  1  0
 20 22  2  0
 10 23  2  0
 23 24  1  0
  2 25  1  0
 25 26  1  0
 26 27  2  0
 27 28  1  0
 28 29  1  0
 24  4  2  0
 29 25  2  0
 24  7  1  0
 15 11  1  0
 22 16  1  0
M  END
>  <Compound_ID>  (207) 
CHEMBL4107889

>  <Molecule Name>  (207) 
nan

>  <Molecular Weight>  (207) 
391.41

>  <AlogP>  (207) 
3.19

>  <Smiles>  (207) 
O=C(Nc1cnn2ccc(N3CCC[C@@H]3c3cccc(F)c3)nc12)c1cc[nH]n1

>  <Standard Type>  (207) 
IC50

>  <Standard Relation>  (207) 
'='

>  <Standard Units>  (207) 
nM

>  <Standard Value>  (207) 
15.3

>  <Assay ChEMBL ID>  (207) 
CHEMBL3887076

>  <Assay Description>  (207) 
ELISA Assay: An enzyme-linked immunosorbant assay (ELISA) was used to assess TrkA kinase activity in the presence of inhibitors. Immulon 4HBX 384-well microtiter plates (Thermo part #8755) were coated with a 0.025 mg/mL solution of poly (Glu, Ala, Tyr; 6:3:1; Sigma P3899). Various concentrations of test compound, 2.5 nM TrkA (Invitrogen Corp., histidine-tagged recombinant human TrkA, cytoplasmic domain), and 500 uM ATP were incubated for 25 minutes at ambient temperature in the coated plates while shaking. The assay buffer consisted of 25 mM MOPS pH 7.5, 0.005% (v/v) Triton X-100 and 5 mM MgCl2. The reaction mixture was removed from the plate by washing with PBS containing 0.1% (v/v) Tween 20. The phosphorylated reaction product was detected using 0.2 ug/mL of a phosphotyrosine specific monoclonal antibody (clone PY20) conjugated to horseradish peroxidase in conjunction with the TMB Peroxidase Substrate System (KPL).

>  <BAO Format ID>  (207) 
BAO_0000357

>  <BAO Label>  (207) 
single protein format

>  <Assay Organism>  (207) 
None

>  <Target ChEMBL ID>  (207) 
CHEMBL2815

>  <Target Name>  (207) 
Nerve growth factor receptor Trk-A

>  <Target Organism>  (207) 
Homo sapiens

>  <Target Type>  (207) 
SINGLE PROTEIN

>  <Document ChEMBL ID>  (207) 
CHEMBL3886151

>  <Source Description>  (207) 
BindingDB Database

>  <Document Journal>  (207) 
nan

>  <Document Year>  (207) 
2014.0

>  <Active>  (207) 
1.0

>  <bits>  (207) 
<rdkit.DataStructs.cDataStructs.ExplicitBitVect object at 0x00000159F6036AB0>

>  <Group>  (207) 
G2

$$$$

     RDKit          2D

 33 37  0  0  0  0  0  0  0  0999 V2000
   -2.9520   -4.6564    0.0000 C   0  0  0  0  0  0  0  0  0  0  0  0
   -2.6401   -3.1891    0.0000 C   0  0  0  0  0  0  0  0  0  0  0  0
   -3.7548   -2.1855    0.0000 C   0  0  0  0  0  0  0  0  0  0  0  0
   -1.2135   -2.7256    0.0000 N   0  0  0  0  0  0  0  0  0  0  0  0
   -0.0000   -3.6073    0.0000 C   0  0  0  0  0  0  0  0  0  0  0  0
    1.2135   -2.7256    0.0000 C   0  0  0  0  0  0  0  0  0  0  0  0
    2.6401   -3.1891    0.0000 C   0  0  0  0  0  0  0  0  0  0  0  0
    3.7548   -2.1855    0.0000 O   0  0  0  0  0  0  0  0  0  0  0  0
    2.9520   -4.6564    0.0000 C   0  0  0  0  0  0  0  0  0  0  0  0
    1.8373   -5.6601    0.0000 C   0  0  0  0  0  0  0  0  0  0  0  0
    2.1491   -7.1273    0.0000 N   0  0  0  0  0  0  0  0  0  0  0  0
    3.5757   -7.5908    0.0000 C   0  0  0  0  0  0  0  0  0  0  0  0
    4.6904   -6.5871    0.0000 C   0  0  0  0  0  0  0  0  0  0  0  0
    6.1170   -7.0506    0.0000 N   0  0  0  0  0  0  0  0  0  0  0  0
    6.4289   -8.5179    0.0000 C   0  0  0  0  0  0  0  0  0  0  0  0
    5.3142   -9.5216    0.0000 O   0  0  0  0  0  0  0  0  0  0  0  0
    7.8555   -8.9814    0.0000 C   0  0  0  0  0  0  0  0  0  0  0  0
    8.1673  -10.4486    0.0000 C   0  0  0  0  0  0  0  0  0  0  0  0
    7.1636  -11.5633    0.0000 N   0  0  0  0  0  0  0  0  0  0  0  0
    7.9136  -12.8624    0.0000 N   0  0  0  0  0  0  0  0  0  0  0  0
    9.3809  -12.5505    0.0000 C   0  0  0  0  0  0  0  0  0  0  0  0
   10.5944  -13.4322    0.0000 C   0  0  0  0  0  0  0  0  0  0  0  0
   11.9647  -12.8221    0.0000 C   0  0  0  0  0  0  0  0  0  0  0  0
   12.1215  -11.3303    0.0000 C   0  0  0  0  0  0  0  0  0  0  0  0
   10.9080  -10.4486    0.0000 C   0  0  0  0  0  0  0  0  0  0  0  0
    9.5377  -11.0587    0.0000 C   0  0  0  0  0  0  0  0  0  0  0  0
    4.3786   -5.1199    0.0000 C   0  0  0  0  0  0  0  0  0  0  0  0
    0.7500   -1.2990    0.0000 C   0  0  0  0  0  0  0  0  0  0  0  0
    1.5000    0.0000    0.0000 C   0  0  0  0  0  0  0  0  0  0  0  0
    0.7500    1.2990    0.0000 N   0  0  0  0  0  0  0  0  0  0  0  0
   -0.7500    1.2990    0.0000 C   0  0  0  0  0  0  0  0  0  0  0  0
   -1.5000    0.0000    0.0000 N   0  0  0  0  0  0  0  0  0  0  0  0
   -0.7500   -1.2990    0.0000 C   0  0  0  0  0  0  0  0  0  0  0  0
  1  2  1  0
  2  3  1  0
  2  4  1  0
  4  5  1  0
  5  6  2  0
  6  7  1  0
  7  8  2  0
  7  9  1  0
  9 10  2  0
 10 11  1  0
 11 12  2  0
 12 13  1  0
 13 14  1  0
 14 15  1  0
 15 16  2  0
 15 17  1  0
 17 18  1  0
 18 19  2  0
 19 20  1  0
 20 21  1  0
 21 22  2  0
 22 23  1  0
 23 24  2  0
 24 25  1  0
 25 26  2  0
 13 27  2  0
  6 28  1  0
 28 29  2  0
 29 30  1  0
 30 31  2  0
 31 32  1  0
 32 33  2  0
 33  4  1  0
 27  9  1  0
 33 28  1  0
 26 18  1  0
 26 21  1  0
M  END
>  <Compound_ID>  (208) 
CHEMBL3661538

>  <Molecule Name>  (208) 
nan

>  <Molecular Weight>  (208) 
439.48

>  <AlogP>  (208) 
3.7

>  <Smiles>  (208) 
CC(C)n1cc(C(=O)c2cncc(NC(=O)Cc3n[nH]c4ccccc34)c2)c2cncnc21

>  <Standard Type>  (208) 
IC50

>  <Standard Relation>  (208) 
'='

>  <Standard Units>  (208) 
nM

>  <Standard Value>  (208) 
71.5

>  <Assay ChEMBL ID>  (208) 
CHEMBL3887033

>  <Assay Description>  (208) 
Enzyme Assay: Isolated TRK Enzyme assays use the HTRF KinEASE-TK kit (Cisbio Cat# 62TK0PEJ) with recombinant His-tagged cytoplasmic domains of each TRK receptor sourced from Invitrogen (see table below). This activity-assay measures the phosphorylation of tyrosine residues within a substrate from the HTRF kit which has been validated by Cisbio for a variety of tyrosine kinases including the TRK receptors. Assay details: Target:TRKA; Invitrogen Cat# PV3144; Amino acids:aa 441-796; FAC enzyme:4nM; FAC ATP:40uM; Assay Reaction Time:35min.

>  <BAO Format ID>  (208) 
BAO_0000357

>  <BAO Label>  (208) 
single protein format

>  <Assay Organism>  (208) 
None

>  <Target ChEMBL ID>  (208) 
CHEMBL2815

>  <Target Name>  (208) 
Nerve growth factor receptor Trk-A

>  <Target Organism>  (208) 
Homo sapiens

>  <Target Type>  (208) 
SINGLE PROTEIN

>  <Document ChEMBL ID>  (208) 
CHEMBL3639348

>  <Source Description>  (208) 
BindingDB Database

>  <Document Journal>  (208) 
nan

>  <Document Year>  (208) 
2014.0

>  <Active>  (208) 
1.0

>  <bits>  (208) 
<rdkit.DataStructs.cDataStructs.ExplicitBitVect object at 0x00000159F6036650>

>  <Group>  (208) 
G2

$$$$

     RDKit          2D

 36 40  0  0  0  0  0  0  0  0999 V2000
   -4.6883    2.2939    0.0000 C   0  0  0  0  0  0  0  0  0  0  0  0
   -3.5736    1.2902    0.0000 O   0  0  0  0  0  0  0  0  0  0  0  0
   -2.1470    1.7537    0.0000 C   0  0  0  0  0  0  0  0  0  0  0  0
   -1.8351    3.2209    0.0000 C   0  0  0  0  0  0  0  0  0  0  0  0
   -0.4086    3.6844    0.0000 C   0  0  0  0  0  0  0  0  0  0  0  0
   -0.0967    5.1517    0.0000 F   0  0  0  0  0  0  0  0  0  0  0  0
    0.7062    2.6807    0.0000 C   0  0  0  0  0  0  0  0  0  0  0  0
    0.3943    1.2135    0.0000 C   0  0  0  0  0  0  0  0  0  0  0  0
    1.2760    0.0000    0.0000 C   0  0  0  0  0  0  0  0  0  0  0  0
    0.3943   -1.2135    0.0000 C   0  0  0  0  0  0  0  0  0  0  0  0
   -1.0323   -0.7500    0.0000 N   0  0  0  0  0  0  0  0  0  0  0  0
   -2.2458   -1.6317    0.0000 C   0  0  0  0  0  0  0  0  0  0  0  0
   -2.0890   -3.1235    0.0000 C   0  0  0  0  0  0  0  0  0  0  0  0
   -0.7187   -3.7336    0.0000 O   0  0  0  0  0  0  0  0  0  0  0  0
   -3.3025   -4.0051    0.0000 N   0  0  0  0  0  0  0  0  0  0  0  0
   -3.1458   -5.4969    0.0000 C   0  0  0  0  0  0  0  0  0  0  0  0
   -4.3593   -6.3786    0.0000 C   0  0  0  0  0  0  0  0  0  0  0  0
   -4.2025   -7.8704    0.0000 N   0  0  0  0  0  0  0  0  0  0  0  0
   -2.8322   -8.4805    0.0000 C   0  0  0  0  0  0  0  0  0  0  0  0
   -1.6186   -7.5988    0.0000 C   0  0  0  0  0  0  0  0  0  0  0  0
   -0.2483   -8.2089    0.0000 C   0  0  0  0  0  0  0  0  0  0  0  0
    0.9652   -7.3272    0.0000 O   0  0  0  0  0  0  0  0  0  0  0  0
   -0.0915   -9.7007    0.0000 C   0  0  0  0  0  0  0  0  0  0  0  0
   -1.2062  -10.7044    0.0000 C   0  0  0  0  0  0  0  0  0  0  0  0
   -0.5961  -12.0747    0.0000 N   0  0  0  0  0  0  0  0  0  0  0  0
   -1.3461  -13.3737    0.0000 C   0  0  0  0  0  0  0  0  0  0  0  0
   -2.8461  -13.3737    0.0000 C   0  0  0  0  0  0  0  0  0  0  0  0
   -0.5961  -14.6728    0.0000 C   0  0  0  0  0  0  0  0  0  0  0  0
    0.8956  -11.9179    0.0000 C   0  0  0  0  0  0  0  0  0  0  0  0
    2.0104  -12.9216    0.0000 N   0  0  0  0  0  0  0  0  0  0  0  0
    3.4369  -12.4581    0.0000 C   0  0  0  0  0  0  0  0  0  0  0  0
    3.7488  -10.9909    0.0000 N   0  0  0  0  0  0  0  0  0  0  0  0
    2.6341   -9.9872    0.0000 C   0  0  0  0  0  0  0  0  0  0  0  0
    1.2075  -10.4507    0.0000 C   0  0  0  0  0  0  0  0  0  0  0  0
   -1.7754   -6.1070    0.0000 C   0  0  0  0  0  0  0  0  0  0  0  0
   -1.0323    0.7500    0.0000 C   0  0  0  0  0  0  0  0  0  0  0  0
  1  2  1  0
  2  3  1  0
  3  4  2  0
  4  5  1  0
  5  6  1  0
  5  7  2  0
  7  8  1  0
  8  9  1  0
  9 10  2  0
 10 11  1  0
 11 12  1  0
 12 13  1  0
 13 14  2  0
 13 15  1  0
 15 16  1  0
 16 17  2  0
 17 18  1  0
 18 19  2  0
 19 20  1  0
 20 21  1  0
 21 22  2  0
 21 23  1  0
 23 24  2  0
 24 25  1  0
 25 26  1  0
 26 27  1  0
 26 28  1  0
 25 29  1  0
 29 30  2  0
 30 31  1  0
 31 32  2  0
 32 33  1  0
 33 34  2  0
 20 35  2  0
 11 36  1  0
 36  3  1  0
 36  8  2  0
 35 16  1  0
 34 23  1  0
 34 29  1  0
M  END
>  <Compound_ID>  (209) 
CHEMBL3661539

>  <Molecule Name>  (209) 
nan

>  <Molecular Weight>  (209) 
486.51

>  <AlogP>  (209) 
4.38

>  <Smiles>  (209) 
COc1cc(F)cc2ccn(CC(=O)Nc3cncc(C(=O)c4cn(C(C)C)c5ncncc45)c3)c12

>  <Standard Type>  (209) 
IC50

>  <Standard Relation>  (209) 
'='

>  <Standard Units>  (209) 
nM

>  <Standard Value>  (209) 
37.4

>  <Assay ChEMBL ID>  (209) 
CHEMBL3887033

>  <Assay Description>  (209) 
Enzyme Assay: Isolated TRK Enzyme assays use the HTRF KinEASE-TK kit (Cisbio Cat# 62TK0PEJ) with recombinant His-tagged cytoplasmic domains of each TRK receptor sourced from Invitrogen (see table below). This activity-assay measures the phosphorylation of tyrosine residues within a substrate from the HTRF kit which has been validated by Cisbio for a variety of tyrosine kinases including the TRK receptors. Assay details: Target:TRKA; Invitrogen Cat# PV3144; Amino acids:aa 441-796; FAC enzyme:4nM; FAC ATP:40uM; Assay Reaction Time:35min.

>  <BAO Format ID>  (209) 
BAO_0000357

>  <BAO Label>  (209) 
single protein format

>  <Assay Organism>  (209) 
None

>  <Target ChEMBL ID>  (209) 
CHEMBL2815

>  <Target Name>  (209) 
Nerve growth factor receptor Trk-A

>  <Target Organism>  (209) 
Homo sapiens

>  <Target Type>  (209) 
SINGLE PROTEIN

>  <Document ChEMBL ID>  (209) 
CHEMBL3639348

>  <Source Description>  (209) 
BindingDB Database

>  <Document Journal>  (209) 
nan

>  <Document Year>  (209) 
2014.0

>  <Active>  (209) 
1.0

>  <bits>  (209) 
<rdkit.DataStructs.cDataStructs.ExplicitBitVect object at 0x00000159F6036B20>

>  <Group>  (209) 
G2

$$$$

     RDKit          2D

 31 33  0  0  0  0  0  0  0  0999 V2000
   -6.1170   -7.0506    0.0000 C   0  0  0  0  0  0  0  0  0  0  0  0
   -4.6904   -6.5871    0.0000 C   0  0  0  0  0  0  0  0  0  0  0  0
   -3.5757   -7.5908    0.0000 C   0  0  0  0  0  0  0  0  0  0  0  0
   -4.3786   -5.1199    0.0000 N   0  0  0  0  0  0  0  0  0  0  0  0
   -2.9520   -4.6564    0.0000 C   0  0  0  0  0  0  0  0  0  0  0  0
   -1.8373   -5.6601    0.0000 O   0  0  0  0  0  0  0  0  0  0  0  0
   -2.6401   -3.1891    0.0000 N   0  0  0  0  0  0  0  0  0  0  0  0
   -1.2135   -2.7256    0.0000 C   0  0  0  0  0  0  0  0  0  0  0  0
   -0.0000   -3.6073    0.0000 C   0  0  0  0  0  0  0  0  0  0  0  0
    1.2135   -2.7256    0.0000 N   0  0  0  0  0  0  0  0  0  0  0  0
    0.7500   -1.2990    0.0000 N   0  0  0  0  0  0  0  0  0  0  0  0
    1.5000    0.0000    0.0000 C   0  0  0  0  0  0  0  0  0  0  0  0
    0.7500    1.2990    0.0000 C   0  0  0  0  0  0  0  0  0  0  0  0
   -0.7500    1.2990    0.0000 C   0  0  0  0  0  0  0  0  0  0  0  0
   -1.5000    2.5981    0.0000 N   0  0  0  0  0  0  0  0  0  0  0  0
   -3.0000    2.5981    0.0000 C   0  0  0  0  0  0  0  0  0  0  0  0
   -0.7500    3.8971    0.0000 C   0  0  0  0  0  0  0  0  0  0  0  0
   -1.5000    5.1962    0.0000 C   0  0  0  0  0  0  0  0  0  0  0  0
    0.7500    3.8971    0.0000 C   0  0  0  0  0  0  0  0  0  0  0  0
    1.5000    2.5981    0.0000 C   0  0  0  0  0  0  0  0  0  0  0  0
    3.0000    2.5981    0.0000 C   0  0  0  0  0  0  0  0  0  0  0  0
    3.7500    1.2990    0.0000 F   0  0  0  0  0  0  0  0  0  0  0  0
    3.7500    3.8971    0.0000 C   0  0  0  0  0  0  0  0  0  0  0  0
    3.0000    5.1962    0.0000 C   0  0  0  0  0  0  0  0  0  0  0  0
    1.5000    5.1962    0.0000 C   0  0  0  0  0  0  0  0  0  0  0  0
    0.7500    6.4952    0.0000 F   0  0  0  0  0  0  0  0  0  0  0  0
   -1.5000    0.0000    0.0000 N   0  0  0  0  0  0  0  0  0  0  0  0
   -0.7500   -1.2990    0.0000 C   0  0  0  0  0  0  0  0  0  0  0  0
   -5.4933   -4.1162    0.0000 C   0  0  0  0  0  0  0  0  0  0  0  0
   -6.9199   -4.5797    0.0000 C   0  0  0  0  0  0  0  0  0  0  0  0
   -5.1814   -2.6490    0.0000 C   0  0  0  0  0  0  0  0  0  0  0  0
  1  2  1  0
  2  3  1  0
  2  4  1  0
  4  5  1  0
  5  6  2  0
  5  7  1  0
  7  8  1  0
  8  9  1  0
  9 10  2  0
 10 11  1  0
 11 12  1  0
 12 13  2  0
 13 14  1  0
 14 15  1  0
 15 16  1  0
 15 17  1  0
 17 18  1  6
 17 19  1  0
 19 20  2  0
 20 21  1  0
 21 22  1  0
 21 23  2  0
 23 24  1  0
 24 25  2  0
 25 26  1  0
 14 27  2  0
 27 28  1  0
  4 29  1  0
 29 30  1  0
 29 31  1  0
 28  8  2  0
 28 11  1  0
 25 19  1  0
M  END
>  <Compound_ID>  (210) 
CHEMBL4743163

>  <Molecule Name>  (210) 
nan

>  <Molecular Weight>  (210) 
430.5

>  <AlogP>  (210) 
4.86

>  <Smiles>  (210) 
CC(C)N(C(=O)Nc1cnn2ccc(N(C)[C@H](C)c3cc(F)ccc3F)nc12)C(C)C

>  <Standard Type>  (210) 
IC50

>  <Standard Relation>  (210) 
'='

>  <Standard Units>  (210) 
nM

>  <Standard Value>  (210) 
1.4

>  <Assay ChEMBL ID>  (210) 
CHEMBL4678168

>  <Assay Description>  (210) 
Inhibition of Trk-A (unknown origin)

>  <BAO Format ID>  (210) 
BAO_0000357

>  <BAO Label>  (210) 
single protein format

>  <Assay Organism>  (210) 
Homo sapiens

>  <Target ChEMBL ID>  (210) 
CHEMBL2815

>  <Target Name>  (210) 
Nerve growth factor receptor Trk-A

>  <Target Organism>  (210) 
Homo sapiens

>  <Target Type>  (210) 
SINGLE PROTEIN

>  <Document ChEMBL ID>  (210) 
CHEMBL4673327

>  <Source Description>  (210) 
Scientific Literature

>  <Document Journal>  (210) 
Bioorg Med Chem Lett

>  <Document Year>  (210) 
2021.0

>  <Active>  (210) 
1.0

>  <bits>  (210) 
<rdkit.DataStructs.cDataStructs.ExplicitBitVect object at 0x00000159F6036EA0>

>  <Group>  (210) 
G2

$$$$

     RDKit          2D

 32 35  0  0  0  0  0  0  0  0999 V2000
   -2.9520   -4.6564    0.0000 C   0  0  0  0  0  0  0  0  0  0  0  0
   -2.6401   -3.1891    0.0000 C   0  0  0  0  0  0  0  0  0  0  0  0
   -3.7548   -2.1855    0.0000 C   0  0  0  0  0  0  0  0  0  0  0  0
   -1.2135   -2.7256    0.0000 N   0  0  0  0  0  0  0  0  0  0  0  0
   -0.0000   -3.6073    0.0000 C   0  0  0  0  0  0  0  0  0  0  0  0
    1.2135   -2.7256    0.0000 C   0  0  0  0  0  0  0  0  0  0  0  0
    2.6401   -3.1891    0.0000 C   0  0  0  0  0  0  0  0  0  0  0  0
    3.7548   -2.1855    0.0000 O   0  0  0  0  0  0  0  0  0  0  0  0
    2.9520   -4.6564    0.0000 C   0  0  0  0  0  0  0  0  0  0  0  0
    1.8373   -5.6601    0.0000 C   0  0  0  0  0  0  0  0  0  0  0  0
    2.1491   -7.1273    0.0000 N   0  0  0  0  0  0  0  0  0  0  0  0
    3.5757   -7.5908    0.0000 C   0  0  0  0  0  0  0  0  0  0  0  0
    4.6904   -6.5871    0.0000 C   0  0  0  0  0  0  0  0  0  0  0  0
    6.1170   -7.0506    0.0000 N   0  0  0  0  0  0  0  0  0  0  0  0
    6.4289   -8.5179    0.0000 C   0  0  0  0  0  0  0  0  0  0  0  0
    5.3142   -9.5216    0.0000 O   0  0  0  0  0  0  0  0  0  0  0  0
    7.8555   -8.9814    0.0000 C   0  0  0  0  0  0  0  0  0  0  0  0
    8.1673  -10.4486    0.0000 C   0  0  0  0  0  0  0  0  0  0  0  0
    7.0526  -11.4523    0.0000 C   0  0  0  0  0  0  0  0  0  0  0  0
    7.3645  -12.9195    0.0000 C   0  0  0  0  0  0  0  0  0  0  0  0
    8.7911  -13.3831    0.0000 C   0  0  0  0  0  0  0  0  0  0  0  0
    9.1029  -14.8503    0.0000 Cl  0  0  0  0  0  0  0  0  0  0  0  0
    9.9058  -12.3794    0.0000 C   0  0  0  0  0  0  0  0  0  0  0  0
    9.5939  -10.9121    0.0000 N   0  0  0  0  0  0  0  0  0  0  0  0
    4.3786   -5.1199    0.0000 C   0  0  0  0  0  0  0  0  0  0  0  0
    0.7500   -1.2990    0.0000 C   0  0  0  0  0  0  0  0  0  0  0  0
    1.5000    0.0000    0.0000 C   0  0  0  0  0  0  0  0  0  0  0  0
    0.7500    1.2990    0.0000 N   0  0  0  0  0  0  0  0  0  0  0  0
   -0.7500    1.2990    0.0000 C   0  0  0  0  0  0  0  0  0  0  0  0
   -1.5000    2.5981    0.0000 N   0  0  0  0  0  0  0  0  0  0  0  0
   -1.5000    0.0000    0.0000 N   0  0  0  0  0  0  0  0  0  0  0  0
   -0.7500   -1.2990    0.0000 C   0  0  0  0  0  0  0  0  0  0  0  0
  1  2  1  0
  2  3  1  0
  2  4  1  0
  4  5  1  0
  5  6  2  0
  6  7  1  0
  7  8  2  0
  7  9  1  0
  9 10  2  0
 10 11  1  0
 11 12  2  0
 12 13  1  0
 13 14  1  0
 14 15  1  0
 15 16  2  0
 15 17  1  0
 17 18  1  0
 18 19  2  0
 19 20  1  0
 20 21  2  0
 21 22  1  0
 21 23  1  0
 23 24  2  0
 13 25  2  0
  6 26  1  0
 26 27  2  0
 27 28  1  0
 28 29  2  0
 29 30  1  0
 29 31  1  0
 31 32  2  0
 32  4  1  0
 25  9  1  0
 32 26  1  0
 24 18  1  0
M  END
>  <Compound_ID>  (211) 
CHEMBL3666246

>  <Molecule Name>  (211) 
nan

>  <Molecular Weight>  (211) 
449.9

>  <AlogP>  (211) 
3.45

>  <Smiles>  (211) 
CC(C)n1cc(C(=O)c2cncc(NC(=O)Cc3ccc(Cl)cn3)c2)c2cnc(N)nc21

>  <Standard Type>  (211) 
IC50

>  <Standard Relation>  (211) 
'='

>  <Standard Units>  (211) 
nM

>  <Standard Value>  (211) 
8.71

>  <Assay ChEMBL ID>  (211) 
CHEMBL3887033

>  <Assay Description>  (211) 
Enzyme Assay: Isolated TRK Enzyme assays use the HTRF KinEASE-TK kit (Cisbio Cat# 62TK0PEJ) with recombinant His-tagged cytoplasmic domains of each TRK receptor sourced from Invitrogen (see table below). This activity-assay measures the phosphorylation of tyrosine residues within a substrate from the HTRF kit which has been validated by Cisbio for a variety of tyrosine kinases including the TRK receptors. Assay details: Target:TRKA; Invitrogen Cat# PV3144; Amino acids:aa 441-796; FAC enzyme:4nM; FAC ATP:40uM; Assay Reaction Time:35min.

>  <BAO Format ID>  (211) 
BAO_0000357

>  <BAO Label>  (211) 
single protein format

>  <Assay Organism>  (211) 
None

>  <Target ChEMBL ID>  (211) 
CHEMBL2815

>  <Target Name>  (211) 
Nerve growth factor receptor Trk-A

>  <Target Organism>  (211) 
Homo sapiens

>  <Target Type>  (211) 
SINGLE PROTEIN

>  <Document ChEMBL ID>  (211) 
CHEMBL3639348

>  <Source Description>  (211) 
BindingDB Database

>  <Document Journal>  (211) 
nan

>  <Document Year>  (211) 
2014.0

>  <Active>  (211) 
1.0

>  <bits>  (211) 
<rdkit.DataStructs.cDataStructs.ExplicitBitVect object at 0x00000159F60345F0>

>  <Group>  (211) 
G2

$$$$

     RDKit          2D

 36 40  0  0  0  0  0  0  0  0999 V2000
   -5.3605    2.7564    0.0000 C   0  0  0  0  0  0  0  0  0  0  0  0
   -4.2458    1.7527    0.0000 O   0  0  0  0  0  0  0  0  0  0  0  0
   -4.5577    0.2855    0.0000 C   0  0  0  0  0  0  0  0  0  0  0  0
   -3.4430   -0.7182    0.0000 C   0  0  0  0  0  0  0  0  0  0  0  0
   -3.7548   -2.1855    0.0000 C   0  0  0  0  0  0  0  0  0  0  0  0
   -2.6401   -3.1891    0.0000 C   0  0  0  0  0  0  0  0  0  0  0  0
   -1.2135   -2.7256    0.0000 N   0  0  0  0  0  0  0  0  0  0  0  0
   -0.0000   -3.6073    0.0000 C   0  0  0  0  0  0  0  0  0  0  0  0
    0.0000   -5.1073    0.0000 N   0  0  0  0  0  0  0  0  0  0  0  0
    1.2135   -2.7256    0.0000 N   0  0  0  0  0  0  0  0  0  0  0  0
    0.7500   -1.2990    0.0000 C   0  0  0  0  0  0  0  0  0  0  0  0
    1.5000    0.0000    0.0000 C   0  0  0  0  0  0  0  0  0  0  0  0
    0.7500    1.2990    0.0000 C   0  0  0  0  0  0  0  0  0  0  0  0
    1.5000    2.5981    0.0000 C   0  0  0  0  0  0  0  0  0  0  0  0
    0.8899    3.9684    0.0000 C   0  0  0  0  0  0  0  0  0  0  0  0
    2.0046    4.9721    0.0000 N   0  0  0  0  0  0  0  0  0  0  0  0
    3.3037    4.2221    0.0000 N   0  0  0  0  0  0  0  0  0  0  0  0
    4.6740    4.8322    0.0000 C   0  0  0  0  0  0  0  0  0  0  0  0
    2.9918    2.7549    0.0000 C   0  0  0  0  0  0  0  0  0  0  0  0
   -0.7500    1.2990    0.0000 C   0  0  0  0  0  0  0  0  0  0  0  0
   -1.5000    0.0000    0.0000 N   0  0  0  0  0  0  0  0  0  0  0  0
   -0.7500   -1.2990    0.0000 C   0  0  0  0  0  0  0  0  0  0  0  0
   -5.1814   -2.6490    0.0000 C   0  0  0  0  0  0  0  0  0  0  0  0
   -6.2961   -1.6453    0.0000 C   0  0  0  0  0  0  0  0  0  0  0  0
   -5.9843   -0.1781    0.0000 C   0  0  0  0  0  0  0  0  0  0  0  0
   -7.0990    0.8256    0.0000 O   0  0  0  0  0  0  0  0  0  0  0  0
   -8.5256    0.3621    0.0000 C   0  0  0  0  0  0  0  0  0  0  0  0
   -9.6403    1.3658    0.0000 C   0  0  0  0  0  0  0  0  0  0  0  0
   -9.3284    2.8330    0.0000 C   0  0  0  0  0  0  0  0  0  0  0  0
  -10.4431    3.8367    0.0000 C   0  0  0  0  0  0  0  0  0  0  0  0
  -11.8697    3.3732    0.0000 C   0  0  0  0  0  0  0  0  0  0  0  0
  -12.9844    4.3769    0.0000 C   0  0  0  0  0  0  0  0  0  0  0  0
  -12.6726    5.8441    0.0000 C   0  0  0  0  0  0  0  0  0  0  0  0
  -14.4110    3.9134    0.0000 C   0  0  0  0  0  0  0  0  0  0  0  0
  -12.1816    1.9060    0.0000 N   0  0  0  0  0  0  0  0  0  0  0  0
  -11.0669    0.9023    0.0000 C   0  0  0  0  0  0  0  0  0  0  0  0
  1  2  1  0
  2  3  1  0
  3  4  2  0
  4  5  1  0
  5  6  1  0
  6  7  1  0
  7  8  1  0
  8  9  1  0
  8 10  2  0
 10 11  1  0
 11 12  2  0
 12 13  1  0
 13 14  1  0
 14 15  1  0
 15 16  2  0
 16 17  1  0
 17 18  1  0
 17 19  1  0
 13 20  2  0
 20 21  1  0
 21 22  2  0
  5 23  2  0
 23 24  1  0
 24 25  2  0
 25 26  1  0
 26 27  1  0
 27 28  1  0
 28 29  2  0
 29 30  1  0
 30 31  2  0
 31 32  1  0
 32 33  1  0
 32 34  1  0
 31 35  1  0
 35 36  2  0
 25  3  1  0
 36 28  1  0
 22  7  1  0
 22 11  1  0
 19 14  2  0
M  END
>  <Compound_ID>  (212) 
CHEMBL3678285

>  <Molecule Name>  (212) 
nan

>  <Molecular Weight>  (212) 
483.58

>  <AlogP>  (212) 
4.57

>  <Smiles>  (212) 
COc1cc(Cn2c(N)nc3cc(-c4cnn(C)c4)cnc32)ccc1OCc1ccc(C(C)C)nc1

>  <Standard Type>  (212) 
IC50

>  <Standard Relation>  (212) 
'='

>  <Standard Units>  (212) 
nM

>  <Standard Value>  (212) 
0.2

>  <Assay ChEMBL ID>  (212) 
CHEMBL3887112

>  <Assay Description>  (212) 
Inhibition Assay: Reagents and consumables were purchased from Sigma Aldrich, Carna Biosciences, or Caliper Life Sciences. All assay reaction conditions for IC50 determinations were within the linear range with respect to time and enzyme concentration. In a 384 well polypropylene plate, TrkA (0.4 nM, Carna 08-186) was pre-incubated in a 100 mM Hepes-NaOH pH 7.5 buffer containing 0.01% Triton X-100, 10 mM MgCl2, 0.1% BSA, 1 mM DTT, 10 uM sodium orthovanadate and 10 uM beta-glycerophosphate and compound with a concentration of 2.5% DMSO for 15 minutes at room temperature. The reaction was initiated with an equal volume of peptide substrate (Caliper Life Sciences catalog no. 760430) and ATP in the aforementioned buffer. The final concentrations in the reaction were 200 pM TrkA, 1.5 uM peptide substrate and 55 uM ATP (ATP Km). The reaction was incubated at room temperature for 180 minutes and terminated with a buffer containing excess EDTA (100 mM Hepes-NaOH pH 7.5, 0.02% Brij.

>  <BAO Format ID>  (212) 
BAO_0000357

>  <BAO Label>  (212) 
single protein format

>  <Assay Organism>  (212) 
None

>  <Target ChEMBL ID>  (212) 
CHEMBL2815

>  <Target Name>  (212) 
Nerve growth factor receptor Trk-A

>  <Target Organism>  (212) 
Homo sapiens

>  <Target Type>  (212) 
SINGLE PROTEIN

>  <Document ChEMBL ID>  (212) 
CHEMBL3638818

>  <Source Description>  (212) 
BindingDB Database

>  <Document Journal>  (212) 
nan

>  <Document Year>  (212) 
2015.0

>  <Active>  (212) 
1.0

>  <bits>  (212) 
<rdkit.DataStructs.cDataStructs.ExplicitBitVect object at 0x00000159F6037140>

>  <Group>  (212) 
G2

$$$$

     RDKit          2D

 34 38  0  0  0  0  0  0  0  0999 V2000
    3.7500   -1.2990    0.0000 C   0  0  0  0  0  0  0  0  0  0  0  0
    3.0000   -2.5981    0.0000 C   0  0  0  0  0  0  0  0  0  0  0  0
    3.7500   -3.8971    0.0000 C   0  0  0  0  0  0  0  0  0  0  0  0
    5.2500   -3.8971    0.0000 C   0  0  0  0  0  0  0  0  0  0  0  0
    6.0000   -5.1962    0.0000 C   0  0  0  0  0  0  0  0  0  0  0  0
    7.5000   -5.1962    0.0000 F   0  0  0  0  0  0  0  0  0  0  0  0
    5.2500   -6.4952    0.0000 C   0  0  0  0  0  0  0  0  0  0  0  0
    3.7500   -6.4952    0.0000 C   0  0  0  0  0  0  0  0  0  0  0  0
    3.0000   -5.1962    0.0000 C   0  0  0  0  0  0  0  0  0  0  0  0
    1.5000   -5.1962    0.0000 F   0  0  0  0  0  0  0  0  0  0  0  0
    1.5000   -2.5981    0.0000 N   0  0  0  0  0  0  0  0  0  0  0  0
    0.7500   -3.8971    0.0000 C   0  0  0  0  0  0  0  0  0  0  0  0
    0.7500   -1.2990    0.0000 C   0  0  0  0  0  0  0  0  0  0  0  0
    1.5000    0.0000    0.0000 C   0  0  0  0  0  0  0  0  0  0  0  0
    0.7500    1.2990    0.0000 C   0  0  0  0  0  0  0  0  0  0  0  0
   -0.7500    1.2990    0.0000 N   0  0  0  0  0  0  0  0  0  0  0  0
   -1.7537    2.4138    0.0000 N   0  0  0  0  0  0  0  0  0  0  0  0
   -3.1240    1.8037    0.0000 C   0  0  0  0  0  0  0  0  0  0  0  0
   -2.9672    0.3119    0.0000 C   0  0  0  0  0  0  0  0  0  0  0  0
   -4.0819   -0.6918    0.0000 N   0  0  0  0  0  0  0  0  0  0  0  0
   -5.5085   -0.2283    0.0000 C   0  0  0  0  0  0  0  0  0  0  0  0
   -6.1895    1.1082    0.0000 C   0  0  0  0  0  0  0  0  0  0  0  0
   -5.7260    2.5348    0.0000 N   0  0  0  0  0  0  0  0  0  0  0  0
   -6.6077    3.7483    0.0000 C   0  0  0  0  0  0  0  0  0  0  0  0
   -5.7260    4.9618    0.0000 C   0  0  0  0  0  0  0  0  0  0  0  0
   -4.2994    4.4983    0.0000 C   0  0  0  0  0  0  0  0  0  0  0  0
   -3.0859    5.3800    0.0000 O   0  0  0  0  0  0  0  0  0  0  0  0
   -4.2994    2.9983    0.0000 C   0  0  0  0  0  0  0  0  0  0  0  0
   -7.5260    0.4272    0.0000 C   0  0  0  0  0  0  0  0  0  0  0  0
   -8.9526    0.8907    0.0000 O   0  0  0  0  0  0  0  0  0  0  0  0
   -6.8450   -0.9093    0.0000 C   0  0  0  0  0  0  0  0  0  0  0  0
   -7.3086   -2.3359    0.0000 O   0  0  0  0  0  0  0  0  0  0  0  0
   -1.5000    0.0000    0.0000 C   0  0  0  0  0  0  0  0  0  0  0  0
   -0.7500   -1.2990    0.0000 N   0  0  0  0  0  0  0  0  0  0  0  0
  2  1  1  6
  2  3  1  0
  3  4  2  0
  4  5  1  0
  5  6  1  0
  5  7  2  0
  7  8  1  0
  8  9  2  0
  9 10  1  0
  2 11  1  0
 11 12  1  0
 11 13  1  0
 13 14  1  0
 14 15  2  0
 15 16  1  0
 16 17  1  0
 17 18  2  0
 18 19  1  0
 19 20  1  0
 20 21  1  0
 21 22  2  0
 22 23  1  0
 23 24  1  0
 24 25  1  0
 25 26  1  0
 26 27  1  6
 26 28  1  0
 22 29  1  0
 29 30  2  0
 29 31  1  0
 31 32  2  0
 19 33  2  0
 33 34  1  0
  9  3  1  0
 34 13  2  0
 33 16  1  0
 31 21  1  0
 28 23  1  0
M  END
>  <Compound_ID>  (213) 
CHEMBL4788418

>  <Molecule Name>  (213) 
nan

>  <Molecular Weight>  (213) 
468.46

>  <AlogP>  (213) 
2.12

>  <Smiles>  (213) 
C[C@H](c1cc(F)ccc1F)N(C)c1ccn2ncc(Nc3c(N4CC[C@H](O)C4)c(=O)c3=O)c2n1

>  <Standard Type>  (213) 
IC50

>  <Standard Relation>  (213) 
'='

>  <Standard Units>  (213) 
nM

>  <Standard Value>  (213) 
62.0

>  <Assay ChEMBL ID>  (213) 
CHEMBL4678168

>  <Assay Description>  (213) 
Inhibition of Trk-A (unknown origin)

>  <BAO Format ID>  (213) 
BAO_0000357

>  <BAO Label>  (213) 
single protein format

>  <Assay Organism>  (213) 
Homo sapiens

>  <Target ChEMBL ID>  (213) 
CHEMBL2815

>  <Target Name>  (213) 
Nerve growth factor receptor Trk-A

>  <Target Organism>  (213) 
Homo sapiens

>  <Target Type>  (213) 
SINGLE PROTEIN

>  <Document ChEMBL ID>  (213) 
CHEMBL4673327

>  <Source Description>  (213) 
Scientific Literature

>  <Document Journal>  (213) 
Bioorg Med Chem Lett

>  <Document Year>  (213) 
2021.0

>  <Active>  (213) 
1.0

>  <bits>  (213) 
<rdkit.DataStructs.cDataStructs.ExplicitBitVect object at 0x00000159F6035700>

>  <Group>  (213) 
G2

$$$$

     RDKit          2D

 33 36  0  0  0  0  0  0  0  0999 V2000
   -2.9520   -4.6564    0.0000 C   0  0  0  0  0  0  0  0  0  0  0  0
   -2.6401   -3.1891    0.0000 C   0  0  0  0  0  0  0  0  0  0  0  0
   -3.7548   -2.1855    0.0000 C   0  0  0  0  0  0  0  0  0  0  0  0
   -1.2135   -2.7256    0.0000 N   0  0  0  0  0  0  0  0  0  0  0  0
   -0.0000   -3.6073    0.0000 C   0  0  0  0  0  0  0  0  0  0  0  0
    1.2135   -2.7256    0.0000 C   0  0  0  0  0  0  0  0  0  0  0  0
    2.6401   -3.1891    0.0000 C   0  0  0  0  0  0  0  0  0  0  0  0
    3.7548   -2.1855    0.0000 O   0  0  0  0  0  0  0  0  0  0  0  0
    2.9520   -4.6564    0.0000 C   0  0  0  0  0  0  0  0  0  0  0  0
    1.8373   -5.6601    0.0000 C   0  0  0  0  0  0  0  0  0  0  0  0
    2.1491   -7.1273    0.0000 N   0  0  0  0  0  0  0  0  0  0  0  0
    3.5757   -7.5908    0.0000 C   0  0  0  0  0  0  0  0  0  0  0  0
    4.6904   -6.5871    0.0000 C   0  0  0  0  0  0  0  0  0  0  0  0
    6.1170   -7.0506    0.0000 N   0  0  0  0  0  0  0  0  0  0  0  0
    6.4289   -8.5179    0.0000 C   0  0  0  0  0  0  0  0  0  0  0  0
    5.3142   -9.5216    0.0000 O   0  0  0  0  0  0  0  0  0  0  0  0
    7.8555   -8.9814    0.0000 C   0  0  0  0  0  0  0  0  0  0  0  0
    8.1673  -10.4486    0.0000 C   0  0  0  0  0  0  0  0  0  0  0  0
    7.0526  -11.4523    0.0000 C   0  0  0  0  0  0  0  0  0  0  0  0
    7.3645  -12.9195    0.0000 C   0  0  0  0  0  0  0  0  0  0  0  0
    8.7911  -13.3831    0.0000 C   0  0  0  0  0  0  0  0  0  0  0  0
    9.1029  -14.8503    0.0000 C   0  0  0  0  0  0  0  0  0  0  0  0
    9.4148  -16.3175    0.0000 N   0  0  0  0  0  0  0  0  0  0  0  0
    9.9058  -12.3794    0.0000 C   0  0  0  0  0  0  0  0  0  0  0  0
    9.5939  -10.9121    0.0000 C   0  0  0  0  0  0  0  0  0  0  0  0
    4.3786   -5.1199    0.0000 C   0  0  0  0  0  0  0  0  0  0  0  0
    0.7500   -1.2990    0.0000 C   0  0  0  0  0  0  0  0  0  0  0  0
    1.5000    0.0000    0.0000 C   0  0  0  0  0  0  0  0  0  0  0  0
    0.7500    1.2990    0.0000 N   0  0  0  0  0  0  0  0  0  0  0  0
   -0.7500    1.2990    0.0000 C   0  0  0  0  0  0  0  0  0  0  0  0
   -1.5000    2.5981    0.0000 N   0  0  0  0  0  0  0  0  0  0  0  0
   -1.5000    0.0000    0.0000 N   0  0  0  0  0  0  0  0  0  0  0  0
   -0.7500   -1.2990    0.0000 C   0  0  0  0  0  0  0  0  0  0  0  0
  1  2  1  0
  2  3  1  0
  2  4  1  0
  4  5  1  0
  5  6  2  0
  6  7  1  0
  7  8  2  0
  7  9  1  0
  9 10  2  0
 10 11  1  0
 11 12  2  0
 12 13  1  0
 13 14  1  0
 14 15  1  0
 15 16  2  0
 15 17  1  0
 17 18  1  0
 18 19  2  0
 19 20  1  0
 20 21  2  0
 21 22  1  0
 22 23  3  0
 21 24  1  0
 24 25  2  0
 13 26  2  0
  6 27  1  0
 27 28  2  0
 28 29  1  0
 29 30  2  0
 30 31  1  0
 30 32  1  0
 32 33  2  0
 33  4  1  0
 26  9  1  0
 33 27  1  0
 25 18  1  0
M  END
>  <Compound_ID>  (214) 
CHEMBL3666245

>  <Molecule Name>  (214) 
nan

>  <Molecular Weight>  (214) 
439.48

>  <AlogP>  (214) 
3.27

>  <Smiles>  (214) 
CC(C)n1cc(C(=O)c2cncc(NC(=O)Cc3ccc(C#N)cc3)c2)c2cnc(N)nc21

>  <Standard Type>  (214) 
IC50

>  <Standard Relation>  (214) 
'='

>  <Standard Units>  (214) 
nM

>  <Standard Value>  (214) 
45.3

>  <Assay ChEMBL ID>  (214) 
CHEMBL3887033

>  <Assay Description>  (214) 
Enzyme Assay: Isolated TRK Enzyme assays use the HTRF KinEASE-TK kit (Cisbio Cat# 62TK0PEJ) with recombinant His-tagged cytoplasmic domains of each TRK receptor sourced from Invitrogen (see table below). This activity-assay measures the phosphorylation of tyrosine residues within a substrate from the HTRF kit which has been validated by Cisbio for a variety of tyrosine kinases including the TRK receptors. Assay details: Target:TRKA; Invitrogen Cat# PV3144; Amino acids:aa 441-796; FAC enzyme:4nM; FAC ATP:40uM; Assay Reaction Time:35min.

>  <BAO Format ID>  (214) 
BAO_0000357

>  <BAO Label>  (214) 
single protein format

>  <Assay Organism>  (214) 
None

>  <Target ChEMBL ID>  (214) 
CHEMBL2815

>  <Target Name>  (214) 
Nerve growth factor receptor Trk-A

>  <Target Organism>  (214) 
Homo sapiens

>  <Target Type>  (214) 
SINGLE PROTEIN

>  <Document ChEMBL ID>  (214) 
CHEMBL3639348

>  <Source Description>  (214) 
BindingDB Database

>  <Document Journal>  (214) 
nan

>  <Document Year>  (214) 
2014.0

>  <Active>  (214) 
1.0

>  <bits>  (214) 
<rdkit.DataStructs.cDataStructs.ExplicitBitVect object at 0x00000159F6036DC0>

>  <Group>  (214) 
G2

$$$$

     RDKit          2D

 43 48  0  0  0  0  0  0  0  0999 V2000
  -10.5000  -10.3923    0.0000 C   0  0  0  0  0  0  0  0  0  0  0  0
   -9.7500   -9.0933    0.0000 N   0  0  0  0  0  0  0  0  0  0  0  0
  -10.5000   -7.7942    0.0000 C   0  0  0  0  0  0  0  0  0  0  0  0
   -9.7500   -6.4952    0.0000 C   0  0  0  0  0  0  0  0  0  0  0  0
   -8.2500   -6.4952    0.0000 N   0  0  0  0  0  0  0  0  0  0  0  0
   -7.5000   -5.1962    0.0000 C   0  0  0  0  0  0  0  0  0  0  0  0
   -6.0000   -5.1962    0.0000 C   0  0  0  0  0  0  0  0  0  0  0  0
   -5.2500   -3.8971    0.0000 C   0  0  0  0  0  0  0  0  0  0  0  0
   -3.7500   -3.8971    0.0000 C   0  0  0  0  0  0  0  0  0  0  0  0
   -3.0000   -2.5981    0.0000 O   0  0  0  0  0  0  0  0  0  0  0  0
   -3.0000   -5.1962    0.0000 N   0  0  0  0  0  0  0  0  0  0  0  0
   -1.5000   -5.1962    0.0000 C   0  0  0  0  0  0  0  0  0  0  0  0
   -0.7500   -6.4952    0.0000 C   0  0  0  0  0  0  0  0  0  0  0  0
    0.7500   -6.4952    0.0000 C   0  0  0  0  0  0  0  0  0  0  0  0
    1.5000   -5.1962    0.0000 C   0  0  0  0  0  0  0  0  0  0  0  0
    0.7500   -3.8971    0.0000 C   0  0  0  0  0  0  0  0  0  0  0  0
    1.5000   -2.5981    0.0000 N   0  0  0  0  0  0  0  0  0  0  0  0
    0.7500   -1.2990    0.0000 C   0  0  0  0  0  0  0  0  0  0  0  0
    1.5000    0.0000    0.0000 C   0  0  0  0  0  0  0  0  0  0  0  0
    0.7500    1.2990    0.0000 C   0  0  0  0  0  0  0  0  0  0  0  0
   -0.7500    1.2990    0.0000 C   0  0  0  0  0  0  0  0  0  0  0  0
   -1.5000    0.0000    0.0000 C   0  0  0  0  0  0  0  0  0  0  0  0
   -0.7500   -1.2990    0.0000 C   0  0  0  0  0  0  0  0  0  0  0  0
   -2.9672    0.3119    0.0000 N   0  0  0  0  0  0  0  0  0  0  0  0
   -3.1240    1.8037    0.0000 C   0  0  0  0  0  0  0  0  0  0  0  0
   -4.4231    2.5537    0.0000 O   0  0  0  0  0  0  0  0  0  0  0  0
   -1.7537    2.4138    0.0000 C   0  0  0  0  0  0  0  0  0  0  0  0
   -1.4418    3.8810    0.0000 C   0  0  0  0  0  0  0  0  0  0  0  0
   -2.5565    4.8847    0.0000 C   0  0  0  0  0  0  0  0  0  0  0  0
   -4.0238    4.5728    0.0000 C   0  0  0  0  0  0  0  0  0  0  0  0
   -4.7738    5.8718    0.0000 C   0  0  0  0  0  0  0  0  0  0  0  0
   -3.7701    6.9866    0.0000 C   0  0  0  0  0  0  0  0  0  0  0  0
   -2.3998    6.3765    0.0000 N   0  0  0  0  0  0  0  0  0  0  0  0
   -0.7500   -3.8971    0.0000 C   0  0  0  0  0  0  0  0  0  0  0  0
   -6.0000   -2.5981    0.0000 C   0  0  0  0  0  0  0  0  0  0  0  0
   -7.5000   -2.5981    0.0000 C   0  0  0  0  0  0  0  0  0  0  0  0
   -8.2500   -1.2990    0.0000 C   0  0  0  0  0  0  0  0  0  0  0  0
   -9.0000    0.0000    0.0000 F   0  0  0  0  0  0  0  0  0  0  0  0
   -6.9510   -0.5490    0.0000 F   0  0  0  0  0  0  0  0  0  0  0  0
   -9.5490   -2.0490    0.0000 F   0  0  0  0  0  0  0  0  0  0  0  0
   -8.2500   -3.8971    0.0000 C   0  0  0  0  0  0  0  0  0  0  0  0
   -7.5000   -7.7942    0.0000 C   0  0  0  0  0  0  0  0  0  0  0  0
   -8.2500   -9.0933    0.0000 C   0  0  0  0  0  0  0  0  0  0  0  0
  1  2  1  0
  2  3  1  0
  3  4  1  0
  4  5  1  0
  5  6  1  0
  6  7  2  0
  7  8  1  0
  8  9  1  0
  9 10  2  0
  9 11  1  0
 11 12  1  0
 12 13  2  0
 13 14  1  0
 14 15  2  0
 15 16  1  0
 16 17  1  0
 17 18  1  0
 18 19  2  0
 19 20  1  0
 20 21  2  0
 21 22  1  0
 22 23  2  0
 22 24  1  0
 24 25  1  0
 25 26  2  0
 25 27  1  0
 27 28  2  0
 28 29  1  0
 29 30  2  0
 30 31  1  0
 31 32  2  0
 32 33  1  0
 16 34  2  0
  8 35  2  0
 35 36  1  0
 36 37  1  0
 37 38  1  0
 37 39  1  0
 37 40  1  0
 36 41  2  0
  5 42  1  0
 42 43  1  0
 43  2  1  0
 41  6  1  0
 34 12  1  0
 23 18  1  0
 33 29  1  0
 27 21  1  0
M  END
>  <Compound_ID>  (215) 
CHEMBL2037211

>  <Molecule Name>  (215) 
nan

>  <Molecular Weight>  (215) 
586.62

>  <AlogP>  (215) 
6.27

>  <Smiles>  (215) 
CN1CCN(c2cc(C(=O)Nc3cccc(Nc4ccc5c(c4)NC(=O)/C5=C\c4ccc[nH]4)c3)cc(C(F)(F)F)c2)CC1

>  <Standard Type>  (215) 
IC50

>  <Standard Relation>  (215) 
'='

>  <Standard Units>  (215) 
nM

>  <Standard Value>  (215) 
7.0

>  <Assay ChEMBL ID>  (215) 
CHEMBL2038860

>  <Assay Description>  (215) 
Inhibition of TRKA by HTRF assay

>  <BAO Format ID>  (215) 
BAO_0000357

>  <BAO Label>  (215) 
single protein format

>  <Assay Organism>  (215) 
None

>  <Target ChEMBL ID>  (215) 
CHEMBL2815

>  <Target Name>  (215) 
Nerve growth factor receptor Trk-A

>  <Target Organism>  (215) 
Homo sapiens

>  <Target Type>  (215) 
SINGLE PROTEIN

>  <Document ChEMBL ID>  (215) 
CHEMBL2034853

>  <Source Description>  (215) 
Scientific Literature

>  <Document Journal>  (215) 
ACS Med Chem Lett

>  <Document Year>  (215) 
2012.0

>  <Active>  (215) 
1.0

>  <bits>  (215) 
<rdkit.DataStructs.cDataStructs.ExplicitBitVect object at 0x00000159F6035D90>

>  <Group>  (215) 
G2

$$$$

     RDKit          2D

 33 37  0  0  0  0  0  0  0  0999 V2000
   -3.7548   -2.1855    0.0000 O   0  0  0  0  0  0  0  0  0  0  0  0
   -2.6401   -3.1891    0.0000 C   0  0  0  0  0  0  0  0  0  0  0  0
   -2.9520   -4.6564    0.0000 N   0  0  0  0  0  0  0  0  0  0  0  0
   -4.3786   -5.1199    0.0000 C   0  0  0  0  0  0  0  0  0  0  0  0
   -4.6904   -6.5871    0.0000 C   0  0  0  0  0  0  0  0  0  0  0  0
   -6.1170   -7.0506    0.0000 N   0  0  0  0  0  0  0  0  0  0  0  0
   -6.5805   -8.4772    0.0000 C   0  0  0  0  0  0  0  0  0  0  0  0
   -8.0805   -8.4772    0.0000 C   0  0  0  0  0  0  0  0  0  0  0  0
   -8.5441   -7.0506    0.0000 N   0  0  0  0  0  0  0  0  0  0  0  0
   -7.3305   -6.1690    0.0000 C   0  0  0  0  0  0  0  0  0  0  0  0
   -7.3305   -4.6690    0.0000 O   0  0  0  0  0  0  0  0  0  0  0  0
   -1.2135   -2.7256    0.0000 C   0  0  0  0  0  0  0  0  0  0  0  0
   -0.0000   -3.6073    0.0000 C   0  0  0  0  0  0  0  0  0  0  0  0
    1.2135   -2.7256    0.0000 N   0  0  0  0  0  0  0  0  0  0  0  0
    0.7500   -1.2990    0.0000 N   0  0  0  0  0  0  0  0  0  0  0  0
    1.5000    0.0000    0.0000 C   0  0  0  0  0  0  0  0  0  0  0  0
    0.7500    1.2990    0.0000 C   0  0  0  0  0  0  0  0  0  0  0  0
   -0.7500    1.2990    0.0000 C   0  0  0  0  0  0  0  0  0  0  0  0
   -1.5000    2.5981    0.0000 N   0  0  0  0  0  0  0  0  0  0  0  0
   -2.9918    2.7549    0.0000 C   0  0  0  0  0  0  0  0  0  0  0  0
   -3.3037    4.2221    0.0000 C   0  0  0  0  0  0  0  0  0  0  0  0
   -2.0046    4.9721    0.0000 C   0  0  0  0  0  0  0  0  0  0  0  0
   -0.8899    3.9684    0.0000 C   0  0  0  0  0  0  0  0  0  0  0  0
    0.5773    4.2803    0.0000 C   0  0  0  0  0  0  0  0  0  0  0  0
    1.5810    3.1655    0.0000 C   0  0  0  0  0  0  0  0  0  0  0  0
    3.0482    3.4774    0.0000 C   0  0  0  0  0  0  0  0  0  0  0  0
    4.0519    2.3627    0.0000 F   0  0  0  0  0  0  0  0  0  0  0  0
    3.5118    4.9040    0.0000 C   0  0  0  0  0  0  0  0  0  0  0  0
    2.5081    6.0187    0.0000 C   0  0  0  0  0  0  0  0  0  0  0  0
    1.0409    5.7068    0.0000 C   0  0  0  0  0  0  0  0  0  0  0  0
    0.0372    6.8216    0.0000 F   0  0  0  0  0  0  0  0  0  0  0  0
   -1.5000    0.0000    0.0000 N   0  0  0  0  0  0  0  0  0  0  0  0
   -0.7500   -1.2990    0.0000 C   0  0  0  0  0  0  0  0  0  0  0  0
  1  2  2  0
  2  3  1  0
  3  4  1  0
  4  5  1  0
  5  6  1  0
  6  7  1  0
  7  8  1  0
  8  9  1  0
  9 10  1  0
 10 11  2  0
  2 12  1  0
 12 13  1  0
 13 14  2  0
 14 15  1  0
 15 16  1  0
 16 17  2  0
 17 18  1  0
 18 19  1  0
 19 20  1  0
 20 21  1  0
 21 22  1  0
 22 23  1  0
 23 24  1  6
 24 25  2  0
 25 26  1  0
 26 27  1  0
 26 28  2  0
 28 29  1  0
 29 30  2  0
 30 31  1  0
 18 32  2  0
 32 33  1  0
 10  6  1  0
 33 12  2  0
 33 15  1  0
 23 19  1  0
 30 24  1  0
M  END
>  <Compound_ID>  (216) 
CHEMBL3671152

>  <Molecule Name>  (216) 
nan

>  <Molecular Weight>  (216) 
455.47

>  <AlogP>  (216) 
2.1

>  <Smiles>  (216) 
O=C(NCCN1CCNC1=O)c1cnn2ccc(N3CCC[C@@H]3c3cc(F)ccc3F)nc12

>  <Standard Type>  (216) 
IC50

>  <Standard Relation>  (216) 
'='

>  <Standard Units>  (216) 
nM

>  <Standard Value>  (216) 
3.6

>  <Assay ChEMBL ID>  (216) 
CHEMBL3887070

>  <Assay Description>  (216) 
ELISA Assay: An enzyme-linked immunosorbant assay (ELISA) was used to assess TrkA kinase activity in the presence of inhibitors. Immulon 4HBX 384-well microtiter plates (Thermo part #8755) were coated with a 0.025 mg/mL solution of poly (Glu, Ala, Tyr; 6:3:1; Sigma P3899). Various concentrations of test compound, 2.5 nM TrkA (Invitrogen Corp., histidine-tagged recombinant human TrkA, cytoplasmic domain), and 500 uM ATP were incubated for 25 minutes at ambient temperature in the coated plates while shaking The assay buffer consisted of 25 mM MOPS pH 7.5, 0.005% (v/v) Triton X-100 and 5 mM MgCl2. The reaction mixture was removed from the plate by washing with PBS containing 0.1% (v/v) Tween 20. The phosphorylated reaction product was detected using 0.2 ug/mL of a phosphotyrosine specific monoclonal antibody (clone PY20) conjugated to horseradish peroxidase in conjunction with the TMB Peroxidase Substrate System (KPL).

>  <BAO Format ID>  (216) 
BAO_0000357

>  <BAO Label>  (216) 
single protein format

>  <Assay Organism>  (216) 
None

>  <Target ChEMBL ID>  (216) 
CHEMBL2815

>  <Target Name>  (216) 
Nerve growth factor receptor Trk-A

>  <Target Organism>  (216) 
Homo sapiens

>  <Target Type>  (216) 
SINGLE PROTEIN

>  <Document ChEMBL ID>  (216) 
CHEMBL3638907

>  <Source Description>  (216) 
BindingDB Database

>  <Document Journal>  (216) 
nan

>  <Document Year>  (216) 
2014.0

>  <Active>  (216) 
1.0

>  <bits>  (216) 
<rdkit.DataStructs.cDataStructs.ExplicitBitVect object at 0x00000159F6035E70>

>  <Group>  (216) 
G2

$$$$

     RDKit          2D

 38 43  0  0  0  0  0  0  0  0999 V2000
    3.7500   -1.2990    0.0000 C   0  0  0  0  0  0  0  0  0  0  0  0
    3.0000    0.0000    0.0000 O   0  0  0  0  0  0  0  0  0  0  0  0
    1.5000    0.0000    0.0000 C   0  0  0  0  0  0  0  0  0  0  0  0
    0.7500   -1.2990    0.0000 C   0  0  0  0  0  0  0  0  0  0  0  0
   -0.7500   -1.2990    0.0000 C   0  0  0  0  0  0  0  0  0  0  0  0
   -1.5000    0.0000    0.0000 C   0  0  0  0  0  0  0  0  0  0  0  0
   -0.7500    1.2990    0.0000 C   0  0  0  0  0  0  0  0  0  0  0  0
    0.7500    1.2990    0.0000 N   0  0  0  0  0  0  0  0  0  0  0  0
   -3.0000    0.0000    0.0000 C   0  0  0  0  0  0  0  0  0  0  0  0
   -3.7500    1.2990    0.0000 O   0  0  0  0  0  0  0  0  0  0  0  0
   -5.2500    1.2990    0.0000 C   0  0  0  0  0  0  0  0  0  0  0  0
   -6.0000    2.5981    0.0000 C   0  0  0  0  0  0  0  0  0  0  0  0
   -7.5000    2.5981    0.0000 C   0  0  0  0  0  0  0  0  0  0  0  0
   -8.2500    1.2990    0.0000 C   0  0  0  0  0  0  0  0  0  0  0  0
   -9.7500    1.2990    0.0000 C   0  0  0  0  0  0  0  0  0  0  0  0
  -10.5000    2.5981    0.0000 N   0  0  0  0  0  0  0  0  0  0  0  0
   -9.8899    3.9684    0.0000 C   0  0  0  0  0  0  0  0  0  0  0  0
   -8.4227    4.2803    0.0000 N   0  0  0  0  0  0  0  0  0  0  0  0
  -11.0046    4.9721    0.0000 N   0  0  0  0  0  0  0  0  0  0  0  0
  -12.3037    4.2221    0.0000 C   0  0  0  0  0  0  0  0  0  0  0  0
  -13.7302    4.6856    0.0000 C   0  0  0  0  0  0  0  0  0  0  0  0
  -14.8450    3.6819    0.0000 C   0  0  0  0  0  0  0  0  0  0  0  0
  -16.2715    4.1454    0.0000 C   0  0  0  0  0  0  0  0  0  0  0  0
  -17.4851    3.2638    0.0000 C   0  0  0  0  0  0  0  0  0  0  0  0
  -18.6986    4.1454    0.0000 N   0  0  0  0  0  0  0  0  0  0  0  0
  -18.2351    5.5720    0.0000 N   0  0  0  0  0  0  0  0  0  0  0  0
  -19.1167    6.7856    0.0000 C   0  0  0  0  0  0  0  0  0  0  0  0
  -16.7351    5.5720    0.0000 C   0  0  0  0  0  0  0  0  0  0  0  0
  -14.5331    2.2147    0.0000 C   0  0  0  0  0  0  0  0  0  0  0  0
  -13.1065    1.7512    0.0000 N   0  0  0  0  0  0  0  0  0  0  0  0
  -11.9918    2.7549    0.0000 C   0  0  0  0  0  0  0  0  0  0  0  0
   -7.5000    0.0000    0.0000 C   0  0  0  0  0  0  0  0  0  0  0  0
   -6.0000    0.0000    0.0000 C   0  0  0  0  0  0  0  0  0  0  0  0
   -5.2500   -1.2990    0.0000 O   0  0  0  0  0  0  0  0  0  0  0  0
   -6.0000   -2.5981    0.0000 C   0  0  0  0  0  0  0  0  0  0  0  0
   -3.7500   -1.2990    0.0000 C   0  0  0  0  0  0  0  0  0  0  0  0
   -3.0000   -2.5981    0.0000 C   0  0  0  0  0  0  0  0  0  0  0  0
   -1.5000   -2.5981    0.0000 C   0  0  0  0  0  0  0  0  0  0  0  0
  1  2  1  0
  2  3  1  0
  3  4  2  0
  4  5  1  0
  5  6  2  0
  6  7  1  0
  7  8  2  0
  6  9  1  0
  9 10  1  0
 10 11  1  0
 11 12  2  0
 12 13  1  0
 13 14  2  0
 14 15  1  0
 15 16  1  0
 16 17  1  0
 17 18  1  0
 17 19  2  0
 19 20  1  0
 20 21  2  0
 21 22  1  0
 22 23  1  0
 23 24  1  0
 24 25  2  0
 25 26  1  0
 26 27  1  0
 26 28  1  0
 22 29  2  0
 29 30  1  0
 30 31  2  0
 14 32  1  0
 32 33  2  0
 33 34  1  0
 34 35  1  0
  9 36  1  0
 36 37  1  0
 37 38  1  0
  8  3  1  0
 33 11  1  0
 38  5  1  0
 31 16  1  0
 31 20  1  0
 28 23  2  0
M  END
>  <Compound_ID>  (217) 
CHEMBL3678291

>  <Molecule Name>  (217) 
nan

>  <Molecular Weight>  (217) 
511.59

>  <AlogP>  (217) 
4.33

>  <Smiles>  (217) 
COc1cc2c(cn1)C(Oc1ccc(Cn3c(N)nc4cc(-c5cnn(C)c5)cnc43)cc1OC)CCC2

>  <Standard Type>  (217) 
IC50

>  <Standard Relation>  (217) 
'='

>  <Standard Units>  (217) 
nM

>  <Standard Value>  (217) 
39.0

>  <Assay ChEMBL ID>  (217) 
CHEMBL3887112

>  <Assay Description>  (217) 
Inhibition Assay: Reagents and consumables were purchased from Sigma Aldrich, Carna Biosciences, or Caliper Life Sciences. All assay reaction conditions for IC50 determinations were within the linear range with respect to time and enzyme concentration. In a 384 well polypropylene plate, TrkA (0.4 nM, Carna 08-186) was pre-incubated in a 100 mM Hepes-NaOH pH 7.5 buffer containing 0.01% Triton X-100, 10 mM MgCl2, 0.1% BSA, 1 mM DTT, 10 uM sodium orthovanadate and 10 uM beta-glycerophosphate and compound with a concentration of 2.5% DMSO for 15 minutes at room temperature. The reaction was initiated with an equal volume of peptide substrate (Caliper Life Sciences catalog no. 760430) and ATP in the aforementioned buffer. The final concentrations in the reaction were 200 pM TrkA, 1.5 uM peptide substrate and 55 uM ATP (ATP Km). The reaction was incubated at room temperature for 180 minutes and terminated with a buffer containing excess EDTA (100 mM Hepes-NaOH pH 7.5, 0.02% Brij.

>  <BAO Format ID>  (217) 
BAO_0000357

>  <BAO Label>  (217) 
single protein format

>  <Assay Organism>  (217) 
None

>  <Target ChEMBL ID>  (217) 
CHEMBL2815

>  <Target Name>  (217) 
Nerve growth factor receptor Trk-A

>  <Target Organism>  (217) 
Homo sapiens

>  <Target Type>  (217) 
SINGLE PROTEIN

>  <Document ChEMBL ID>  (217) 
CHEMBL3638818

>  <Source Description>  (217) 
BindingDB Database

>  <Document Journal>  (217) 
nan

>  <Document Year>  (217) 
2015.0

>  <Active>  (217) 
1.0

>  <bits>  (217) 
<rdkit.DataStructs.cDataStructs.ExplicitBitVect object at 0x00000159F6037290>

>  <Group>  (217) 
G2

$$$$

     RDKit          2D

 37 42  0  0  0  0  0  0  0  0999 V2000
  -15.1675   -5.8937    0.0000 C   0  0  0  0  0  0  0  0  0  0  0  0
  -13.7409   -5.4301    0.0000 S   0  0  0  0  0  0  0  0  0  0  0  0
  -13.2774   -6.8567    0.0000 O   0  0  0  0  0  0  0  0  0  0  0  0
  -14.2044   -4.0035    0.0000 O   0  0  0  0  0  0  0  0  0  0  0  0
  -12.3143   -4.9666    0.0000 C   0  0  0  0  0  0  0  0  0  0  0  0
  -12.0025   -3.4994    0.0000 C   0  0  0  0  0  0  0  0  0  0  0  0
  -10.5759   -3.0359    0.0000 C   0  0  0  0  0  0  0  0  0  0  0  0
   -9.4612   -4.0396    0.0000 C   0  0  0  0  0  0  0  0  0  0  0  0
   -9.7730   -5.5068    0.0000 C   0  0  0  0  0  0  0  0  0  0  0  0
   -8.6583   -6.5105    0.0000 C   0  0  0  0  0  0  0  0  0  0  0  0
   -7.2317   -6.0469    0.0000 C   0  0  0  0  0  0  0  0  0  0  0  0
   -6.9199   -4.5797    0.0000 O   0  0  0  0  0  0  0  0  0  0  0  0
   -6.1170   -7.0506    0.0000 N   0  0  0  0  0  0  0  0  0  0  0  0
   -4.6904   -6.5871    0.0000 C   0  0  0  0  0  0  0  0  0  0  0  0
   -3.5757   -7.5908    0.0000 C   0  0  0  0  0  0  0  0  0  0  0  0
   -2.1491   -7.1273    0.0000 N   0  0  0  0  0  0  0  0  0  0  0  0
   -1.8373   -5.6601    0.0000 C   0  0  0  0  0  0  0  0  0  0  0  0
   -2.9520   -4.6564    0.0000 C   0  0  0  0  0  0  0  0  0  0  0  0
   -2.6401   -3.1891    0.0000 C   0  0  0  0  0  0  0  0  0  0  0  0
   -3.7548   -2.1855    0.0000 O   0  0  0  0  0  0  0  0  0  0  0  0
   -1.2135   -2.7256    0.0000 C   0  0  0  0  0  0  0  0  0  0  0  0
   -0.0000   -3.6073    0.0000 C   0  0  0  0  0  0  0  0  0  0  0  0
    1.2135   -2.7256    0.0000 N   0  0  0  0  0  0  0  0  0  0  0  0
    2.6401   -3.1891    0.0000 C   0  0  0  0  0  0  0  0  0  0  0  0
    3.9766   -2.5082    0.0000 C   0  0  0  0  0  0  0  0  0  0  0  0
    4.6576   -3.8447    0.0000 C   0  0  0  0  0  0  0  0  0  0  0  0
    3.3211   -4.5257    0.0000 C   0  0  0  0  0  0  0  0  0  0  0  0
    3.7537   -3.1942    0.0000 C   0  0  0  0  0  0  0  0  0  0  0  0
    0.7500   -1.2990    0.0000 C   0  0  0  0  0  0  0  0  0  0  0  0
    1.5000    0.0000    0.0000 N   0  0  0  0  0  0  0  0  0  0  0  0
    0.7500    1.2990    0.0000 C   0  0  0  0  0  0  0  0  0  0  0  0
    1.5000    2.5981    0.0000 N   0  0  0  0  0  0  0  0  0  0  0  0
   -0.7500    1.2990    0.0000 N   0  0  0  0  0  0  0  0  0  0  0  0
   -1.5000    0.0000    0.0000 C   0  0  0  0  0  0  0  0  0  0  0  0
   -0.7500   -1.2990    0.0000 C   0  0  0  0  0  0  0  0  0  0  0  0
   -4.3786   -5.1199    0.0000 C   0  0  0  0  0  0  0  0  0  0  0  0
  -11.1996   -5.9703    0.0000 C   0  0  0  0  0  0  0  0  0  0  0  0
  1  2  1  0
  2  3  2  0
  2  4  2  0
  2  5  1  0
  5  6  2  0
  6  7  1  0
  7  8  2  0
  8  9  1  0
  9 10  1  0
 10 11  1  0
 11 12  2  0
 11 13  1  0
 13 14  1  0
 14 15  2  0
 15 16  1  0
 16 17  2  0
 17 18  1  0
 18 19  1  0
 19 20  2  0
 19 21  1  0
 21 22  2  0
 22 23  1  0
 23 24  1  0
 24 25  1  0
 25 26  1  0
 26 27  1  0
 26 28  1  0
 23 29  1  0
 29 30  2  0
 30 31  1  0
 31 32  1  0
 31 33  2  0
 33 34  1  0
 34 35  2  0
 18 36  2  0
  9 37  2  0
 37  5  1  0
 36 14  1  0
 35 21  1  0
 27 24  1  0
 35 29  1  0
 28 24  1  0
M  END
>  <Compound_ID>  (218) 
CHEMBL3671468

>  <Molecule Name>  (218) 
nan

>  <Molecular Weight>  (218) 
516.58

>  <AlogP>  (218) 
2.73

>  <Smiles>  (218) 
CS(=O)(=O)c1cccc(CC(=O)Nc2cncc(C(=O)c3cn(C45CC(C4)C5)c4nc(N)ncc34)c2)c1

>  <Standard Type>  (218) 
IC50

>  <Standard Relation>  (218) 
'='

>  <Standard Units>  (218) 
nM

>  <Standard Value>  (218) 
8.11

>  <Assay ChEMBL ID>  (218) 
CHEMBL3887033

>  <Assay Description>  (218) 
Enzyme Assay: Isolated TRK Enzyme assays use the HTRF KinEASE-TK kit (Cisbio Cat# 62TK0PEJ) with recombinant His-tagged cytoplasmic domains of each TRK receptor sourced from Invitrogen (see table below). This activity-assay measures the phosphorylation of tyrosine residues within a substrate from the HTRF kit which has been validated by Cisbio for a variety of tyrosine kinases including the TRK receptors. Assay details: Target:TRKA; Invitrogen Cat# PV3144; Amino acids:aa 441-796; FAC enzyme:4nM; FAC ATP:40uM; Assay Reaction Time:35min.

>  <BAO Format ID>  (218) 
BAO_0000357

>  <BAO Label>  (218) 
single protein format

>  <Assay Organism>  (218) 
None

>  <Target ChEMBL ID>  (218) 
CHEMBL2815

>  <Target Name>  (218) 
Nerve growth factor receptor Trk-A

>  <Target Organism>  (218) 
Homo sapiens

>  <Target Type>  (218) 
SINGLE PROTEIN

>  <Document ChEMBL ID>  (218) 
CHEMBL3639348

>  <Source Description>  (218) 
BindingDB Database

>  <Document Journal>  (218) 
nan

>  <Document Year>  (218) 
2014.0

>  <Active>  (218) 
1.0

>  <bits>  (218) 
<rdkit.DataStructs.cDataStructs.ExplicitBitVect object at 0x00000159F60352A0>

>  <Group>  (218) 
G2

$$$$

     RDKit          2D

 36 41  0  0  0  0  0  0  0  0999 V2000
    3.0000    0.0000    0.0000 N   0  0  0  0  0  0  0  0  0  0  0  0
    1.5000    0.0000    0.0000 C   0  0  0  0  0  0  0  0  0  0  0  0
    0.7500   -1.2990    0.0000 N   0  0  0  0  0  0  0  0  0  0  0  0
   -0.7500   -1.2990    0.0000 C   0  0  0  0  0  0  0  0  0  0  0  0
   -1.5000    0.0000    0.0000 C   0  0  0  0  0  0  0  0  0  0  0  0
   -2.9672    0.3119    0.0000 C   0  0  0  0  0  0  0  0  0  0  0  0
   -4.0819   -0.6918    0.0000 C   0  0  0  0  0  0  0  0  0  0  0  0
   -3.7701   -2.1590    0.0000 O   0  0  0  0  0  0  0  0  0  0  0  0
   -5.5085   -0.2283    0.0000 C   0  0  0  0  0  0  0  0  0  0  0  0
   -5.8204    1.2389    0.0000 C   0  0  0  0  0  0  0  0  0  0  0  0
   -7.2470    1.7024    0.0000 N   0  0  0  0  0  0  0  0  0  0  0  0
   -8.3617    0.6987    0.0000 C   0  0  0  0  0  0  0  0  0  0  0  0
   -8.0498   -0.7685    0.0000 C   0  0  0  0  0  0  0  0  0  0  0  0
   -9.1645   -1.7722    0.0000 N   0  0  0  0  0  0  0  0  0  0  0  0
  -10.5911   -1.3086    0.0000 C   0  0  0  0  0  0  0  0  0  0  0  0
  -10.9030    0.1586    0.0000 O   0  0  0  0  0  0  0  0  0  0  0  0
  -11.7058   -2.3123    0.0000 C   0  0  0  0  0  0  0  0  0  0  0  0
  -13.1324   -1.8488    0.0000 N   0  0  0  0  0  0  0  0  0  0  0  0
  -14.3460   -2.7305    0.0000 C   0  0  0  0  0  0  0  0  0  0  0  0
  -15.5595   -1.8488    0.0000 C   0  0  0  0  0  0  0  0  0  0  0  0
  -16.9861   -2.3123    0.0000 C   0  0  0  0  0  0  0  0  0  0  0  0
  -18.4126   -2.7759    0.0000 F   0  0  0  0  0  0  0  0  0  0  0  0
  -17.4496   -0.8858    0.0000 F   0  0  0  0  0  0  0  0  0  0  0  0
  -16.5225   -3.7389    0.0000 F   0  0  0  0  0  0  0  0  0  0  0  0
  -15.0960   -0.4222    0.0000 N   0  0  0  0  0  0  0  0  0  0  0  0
  -13.5960   -0.4222    0.0000 N   0  0  0  0  0  0  0  0  0  0  0  0
   -6.6232   -1.2320    0.0000 C   0  0  0  0  0  0  0  0  0  0  0  0
   -3.1240    1.8037    0.0000 C   0  0  0  0  0  0  0  0  0  0  0  0
   -1.7537    2.4138    0.0000 N   0  0  0  0  0  0  0  0  0  0  0  0
   -1.4418    3.8810    0.0000 C   0  0  0  0  0  0  0  0  0  0  0  0
   -0.1838    4.6979    0.0000 C   0  0  0  0  0  0  0  0  0  0  0  0
   -1.0008    5.9559    0.0000 C   0  0  0  0  0  0  0  0  0  0  0  0
   -2.2588    5.1390    0.0000 C   0  0  0  0  0  0  0  0  0  0  0  0
   -0.8894    4.8479    0.0000 C   0  0  0  0  0  0  0  0  0  0  0  0
   -0.7500    1.2990    0.0000 C   0  0  0  0  0  0  0  0  0  0  0  0
    0.7500    1.2990    0.0000 N   0  0  0  0  0  0  0  0  0  0  0  0
  1  2  1  0
  2  3  2  0
  3  4  1  0
  4  5  2  0
  5  6  1  0
  6  7  1  0
  7  8  2  0
  7  9  1  0
  9 10  2  0
 10 11  1  0
 11 12  2  0
 12 13  1  0
 13 14  1  0
 14 15  1  0
 15 16  2  0
 15 17  1  0
 17 18  1  0
 18 19  1  0
 19 20  2  0
 20 21  1  0
 21 22  1  0
 21 23  1  0
 21 24  1  0
 20 25  1  0
 25 26  2  0
 13 27  2  0
  6 28  2  0
 28 29  1  0
 29 30  1  0
 30 31  1  0
 31 32  1  0
 32 33  1  0
 32 34  1  0
 29 35  1  0
 35 36  2  0
 36  2  1  0
 35  5  1  0
 27  9  1  0
 33 30  1  0
 26 18  1  0
 34 30  1  0
M  END
>  <Compound_ID>  (219) 
CHEMBL3671470

>  <Molecule Name>  (219) 
nan

>  <Molecular Weight>  (219) 
497.44

>  <AlogP>  (219) 
2.4

>  <Smiles>  (219) 
Nc1ncc2c(C(=O)c3cncc(NC(=O)Cn4cc(C(F)(F)F)nn4)c3)cn(C34CC(C3)C4)c2n1

>  <Standard Type>  (219) 
IC50

>  <Standard Relation>  (219) 
'='

>  <Standard Units>  (219) 
nM

>  <Standard Value>  (219) 
3.21

>  <Assay ChEMBL ID>  (219) 
CHEMBL3887033

>  <Assay Description>  (219) 
Enzyme Assay: Isolated TRK Enzyme assays use the HTRF KinEASE-TK kit (Cisbio Cat# 62TK0PEJ) with recombinant His-tagged cytoplasmic domains of each TRK receptor sourced from Invitrogen (see table below). This activity-assay measures the phosphorylation of tyrosine residues within a substrate from the HTRF kit which has been validated by Cisbio for a variety of tyrosine kinases including the TRK receptors. Assay details: Target:TRKA; Invitrogen Cat# PV3144; Amino acids:aa 441-796; FAC enzyme:4nM; FAC ATP:40uM; Assay Reaction Time:35min.

>  <BAO Format ID>  (219) 
BAO_0000357

>  <BAO Label>  (219) 
single protein format

>  <Assay Organism>  (219) 
None

>  <Target ChEMBL ID>  (219) 
CHEMBL2815

>  <Target Name>  (219) 
Nerve growth factor receptor Trk-A

>  <Target Organism>  (219) 
Homo sapiens

>  <Target Type>  (219) 
SINGLE PROTEIN

>  <Document ChEMBL ID>  (219) 
CHEMBL3639348

>  <Source Description>  (219) 
BindingDB Database

>  <Document Journal>  (219) 
nan

>  <Document Year>  (219) 
2014.0

>  <Active>  (219) 
1.0

>  <bits>  (219) 
<rdkit.DataStructs.cDataStructs.ExplicitBitVect object at 0x00000159F6036570>

>  <Group>  (219) 
G2

$$$$

     RDKit          2D

 32 36  0  0  0  0  0  0  0  0999 V2000
   -2.9520   -4.6564    0.0000 C   0  0  0  0  0  0  0  0  0  0  0  0
   -2.6401   -3.1891    0.0000 C   0  0  0  0  0  0  0  0  0  0  0  0
   -3.7548   -2.1855    0.0000 C   0  0  0  0  0  0  0  0  0  0  0  0
   -1.2135   -2.7256    0.0000 N   0  0  0  0  0  0  0  0  0  0  0  0
   -0.0000   -3.6073    0.0000 C   0  0  0  0  0  0  0  0  0  0  0  0
    1.2135   -2.7256    0.0000 C   0  0  0  0  0  0  0  0  0  0  0  0
    2.6401   -3.1891    0.0000 C   0  0  0  0  0  0  0  0  0  0  0  0
    3.7548   -2.1855    0.0000 O   0  0  0  0  0  0  0  0  0  0  0  0
    2.9520   -4.6564    0.0000 C   0  0  0  0  0  0  0  0  0  0  0  0
    1.8373   -5.6601    0.0000 C   0  0  0  0  0  0  0  0  0  0  0  0
    2.1491   -7.1273    0.0000 N   0  0  0  0  0  0  0  0  0  0  0  0
    3.5757   -7.5908    0.0000 C   0  0  0  0  0  0  0  0  0  0  0  0
    4.6904   -6.5871    0.0000 C   0  0  0  0  0  0  0  0  0  0  0  0
    6.1170   -7.0506    0.0000 N   0  0  0  0  0  0  0  0  0  0  0  0
    6.4289   -8.5179    0.0000 C   0  0  0  0  0  0  0  0  0  0  0  0
    5.3142   -9.5216    0.0000 O   0  0  0  0  0  0  0  0  0  0  0  0
    7.8555   -8.9814    0.0000 C   0  0  0  0  0  0  0  0  0  0  0  0
    8.1673  -10.4486    0.0000 N   0  0  0  0  0  0  0  0  0  0  0  0
    9.5377  -11.0587    0.0000 C   0  0  0  0  0  0  0  0  0  0  0  0
    9.3809  -12.5505    0.0000 C   0  0  0  0  0  0  0  0  0  0  0  0
    7.9136  -12.8624    0.0000 C   0  0  0  0  0  0  0  0  0  0  0  0
    7.3035  -14.2327    0.0000 C   0  0  0  0  0  0  0  0  0  0  0  0
    7.4603  -15.7245    0.0000 C   0  0  0  0  0  0  0  0  0  0  0  0
    6.0900  -15.1144    0.0000 C   0  0  0  0  0  0  0  0  0  0  0  0
    7.1636  -11.5633    0.0000 N   0  0  0  0  0  0  0  0  0  0  0  0
    4.3786   -5.1199    0.0000 C   0  0  0  0  0  0  0  0  0  0  0  0
    0.7500   -1.2990    0.0000 C   0  0  0  0  0  0  0  0  0  0  0  0
    1.5000    0.0000    0.0000 C   0  0  0  0  0  0  0  0  0  0  0  0
    0.7500    1.2990    0.0000 N   0  0  0  0  0  0  0  0  0  0  0  0
   -0.7500    1.2990    0.0000 C   0  0  0  0  0  0  0  0  0  0  0  0
   -1.5000    0.0000    0.0000 N   0  0  0  0  0  0  0  0  0  0  0  0
   -0.7500   -1.2990    0.0000 C   0  0  0  0  0  0  0  0  0  0  0  0
  1  2  1  0
  2  3  1  0
  2  4  1  0
  4  5  1  0
  5  6  2  0
  6  7  1  0
  7  8  2  0
  7  9  1  0
  9 10  2  0
 10 11  1  0
 11 12  2  0
 12 13  1  0
 13 14  1  0
 14 15  1  0
 15 16  2  0
 15 17  1  0
 17 18  1  0
 18 19  1  0
 19 20  2  0
 20 21  1  0
 21 22  1  0
 22 23  1  0
 23 24  1  0
 21 25  2  0
 13 26  2  0
  6 27  1  0
 27 28  2  0
 28 29  1  0
 29 30  2  0
 30 31  1  0
 31 32  2  0
 32  4  1  0
 26  9  1  0
 32 27  1  0
 25 18  1  0
 24 22  1  0
M  END
>  <Compound_ID>  (220) 
CHEMBL3661485

>  <Molecule Name>  (220) 
nan

>  <Molecular Weight>  (220) 
429.48

>  <AlogP>  (220) 
3.35

>  <Smiles>  (220) 
CC(C)n1cc(C(=O)c2cncc(NC(=O)Cn3ccc(C4CC4)n3)c2)c2cncnc21

>  <Standard Type>  (220) 
IC50

>  <Standard Relation>  (220) 
'='

>  <Standard Units>  (220) 
nM

>  <Standard Value>  (220) 
8.81

>  <Assay ChEMBL ID>  (220) 
CHEMBL3887033

>  <Assay Description>  (220) 
Enzyme Assay: Isolated TRK Enzyme assays use the HTRF KinEASE-TK kit (Cisbio Cat# 62TK0PEJ) with recombinant His-tagged cytoplasmic domains of each TRK receptor sourced from Invitrogen (see table below). This activity-assay measures the phosphorylation of tyrosine residues within a substrate from the HTRF kit which has been validated by Cisbio for a variety of tyrosine kinases including the TRK receptors. Assay details: Target:TRKA; Invitrogen Cat# PV3144; Amino acids:aa 441-796; FAC enzyme:4nM; FAC ATP:40uM; Assay Reaction Time:35min.

>  <BAO Format ID>  (220) 
BAO_0000357

>  <BAO Label>  (220) 
single protein format

>  <Assay Organism>  (220) 
None

>  <Target ChEMBL ID>  (220) 
CHEMBL2815

>  <Target Name>  (220) 
Nerve growth factor receptor Trk-A

>  <Target Organism>  (220) 
Homo sapiens

>  <Target Type>  (220) 
SINGLE PROTEIN

>  <Document ChEMBL ID>  (220) 
CHEMBL3639348

>  <Source Description>  (220) 
BindingDB Database

>  <Document Journal>  (220) 
nan

>  <Document Year>  (220) 
2014.0

>  <Active>  (220) 
1.0

>  <bits>  (220) 
<rdkit.DataStructs.cDataStructs.ExplicitBitVect object at 0x00000159F6035A80>

>  <Group>  (220) 
G2

$$$$

     RDKit          2D

 36 40  0  0  0  0  0  0  0  0999 V2000
  -12.3143   -4.9666    0.0000 C   0  0  0  0  0  0  0  0  0  0  0  0
  -11.1996   -5.9703    0.0000 C   0  0  0  0  0  0  0  0  0  0  0  0
   -9.7730   -5.5068    0.0000 O   0  0  0  0  0  0  0  0  0  0  0  0
   -8.6583   -6.5105    0.0000 C   0  0  0  0  0  0  0  0  0  0  0  0
   -8.9702   -7.9777    0.0000 O   0  0  0  0  0  0  0  0  0  0  0  0
   -7.2317   -6.0469    0.0000 C   0  0  0  0  0  0  0  0  0  0  0  0
   -6.9199   -4.5797    0.0000 C   0  0  0  0  0  0  0  0  0  0  0  0
   -5.4933   -4.1162    0.0000 C   0  0  0  0  0  0  0  0  0  0  0  0
   -4.3786   -5.1199    0.0000 N   0  0  0  0  0  0  0  0  0  0  0  0
   -2.9520   -4.6564    0.0000 C   0  0  0  0  0  0  0  0  0  0  0  0
   -1.8373   -5.6601    0.0000 O   0  0  0  0  0  0  0  0  0  0  0  0
   -2.6401   -3.1891    0.0000 N   0  0  0  0  0  0  0  0  0  0  0  0
   -1.2135   -2.7256    0.0000 C   0  0  0  0  0  0  0  0  0  0  0  0
   -0.0000   -3.6073    0.0000 C   0  0  0  0  0  0  0  0  0  0  0  0
    1.2135   -2.7256    0.0000 N   0  0  0  0  0  0  0  0  0  0  0  0
    0.7500   -1.2990    0.0000 C   0  0  0  0  0  0  0  0  0  0  0  0
    1.5000    0.0000    0.0000 C   0  0  0  0  0  0  0  0  0  0  0  0
    0.7500    1.2990    0.0000 C   0  0  0  0  0  0  0  0  0  0  0  0
   -0.7500    1.2990    0.0000 C   0  0  0  0  0  0  0  0  0  0  0  0
   -1.5000    2.5981    0.0000 N   0  0  0  0  0  0  0  0  0  0  0  0
   -2.9918    2.7549    0.0000 C   0  0  0  0  0  0  0  0  0  0  0  0
   -3.3037    4.2221    0.0000 C   0  0  0  0  0  0  0  0  0  0  0  0
   -2.0046    4.9721    0.0000 C   0  0  0  0  0  0  0  0  0  0  0  0
   -0.8899    3.9684    0.0000 C   0  0  0  0  0  0  0  0  0  0  0  0
    0.5773    4.2803    0.0000 C   0  0  0  0  0  0  0  0  0  0  0  0
    1.5810    3.1655    0.0000 C   0  0  0  0  0  0  0  0  0  0  0  0
    3.0482    3.4774    0.0000 C   0  0  0  0  0  0  0  0  0  0  0  0
    4.0519    2.3627    0.0000 F   0  0  0  0  0  0  0  0  0  0  0  0
    3.5118    4.9040    0.0000 C   0  0  0  0  0  0  0  0  0  0  0  0
    2.5081    6.0187    0.0000 C   0  0  0  0  0  0  0  0  0  0  0  0
    1.0409    5.7068    0.0000 C   0  0  0  0  0  0  0  0  0  0  0  0
    0.0372    6.8216    0.0000 F   0  0  0  0  0  0  0  0  0  0  0  0
   -1.5000    0.0000    0.0000 N   0  0  0  0  0  0  0  0  0  0  0  0
   -0.7500   -1.2990    0.0000 N   0  0  0  0  0  0  0  0  0  0  0  0
   -4.6904   -6.5871    0.0000 C   0  0  0  0  0  0  0  0  0  0  0  0
   -6.1170   -7.0506    0.0000 C   0  0  0  0  0  0  0  0  0  0  0  0
  1  2  1  0
  2  3  1  0
  3  4  1  0
  4  5  2  0
  4  6  1  0
  6  7  1  0
  7  8  1  0
  8  9  1  0
  9 10  1  0
 10 11  2  0
 10 12  1  0
 12 13  1  0
 13 14  2  0
 14 15  1  0
 15 16  2  0
 16 17  1  0
 17 18  2  0
 18 19  1  0
 19 20  1  0
 20 21  1  0
 21 22  1  0
 22 23  1  0
 23 24  1  0
 24 25  1  6
 25 26  2  0
 26 27  1  0
 27 28  1  0
 27 29  2  0
 29 30  1  0
 30 31  2  0
 31 32  1  0
 19 33  2  0
 33 34  1  0
  9 35  1  0
 35 36  1  0
 36  6  1  0
 34 13  1  0
 34 16  1  0
 24 20  1  0
 31 25  1  0
M  END
>  <Compound_ID>  (221) 
CHEMBL4109104

>  <Molecule Name>  (221) 
nan

>  <Molecular Weight>  (221) 
498.53

>  <AlogP>  (221) 
4.16

>  <Smiles>  (221) 
CCOC(=O)C1CCN(C(=O)Nc2cnc3ccc(N4CCC[C@@H]4c4cc(F)ccc4F)nn23)CC1

>  <Standard Type>  (221) 
IC50

>  <Standard Relation>  (221) 
'='

>  <Standard Units>  (221) 
nM

>  <Standard Value>  (221) 
20.1

>  <Assay ChEMBL ID>  (221) 
CHEMBL3887826

>  <Assay Description>  (221) 
ELISA Assay: An enzyme-linked immunosorbant assay (ELISA) was used to assess TrkA kinase activity in the presence of inhibitors. Immulon 4HBX 384-well microtiter plates (Thermo part #8755) were coated with a 0.025 mg/mL solution of poly (Glu, Ala, Tyr; 6:3:1; Sigma P3899). Various concentrations of test compound, 2.5 nM TrkA (Invitrogen Corp., histidine-tagged recombinant human TrkA, cytoplasmic domain), and 500 uM ATP were incubated for 25 minutes at ambient temperature in the coated plates while shaking. The assay buffer consisted of 25 mM MOPS pH 7.5, 0.005% (v/v) Triton X-100 and 5 mM MgCl2. The reaction mixture was removed from the plate by washing with PBS containing 0.1% (v/v) Tween 20. The phosphorylated reaction product was detected using 0.2 ug/mL of a phosphotyrosine specific monoclonal antibody (clone PY20) conjugated to horseradish peroxidase in conjunction with the TMB Peroxidase Substrate System (KPL).

>  <BAO Format ID>  (221) 
BAO_0000357

>  <BAO Label>  (221) 
single protein format

>  <Assay Organism>  (221) 
None

>  <Target ChEMBL ID>  (221) 
CHEMBL2815

>  <Target Name>  (221) 
Nerve growth factor receptor Trk-A

>  <Target Organism>  (221) 
Homo sapiens

>  <Target Type>  (221) 
SINGLE PROTEIN

>  <Document ChEMBL ID>  (221) 
CHEMBL3886465

>  <Source Description>  (221) 
BindingDB Database

>  <Document Journal>  (221) 
nan

>  <Document Year>  (221) 
2016.0

>  <Active>  (221) 
1.0

>  <bits>  (221) 
<rdkit.DataStructs.cDataStructs.ExplicitBitVect object at 0x00000159F6036420>

>  <Group>  (221) 
G2

$$$$

     RDKit          2D

 34 38  0  0  0  0  0  0  0  0999 V2000
   -1.8373   -5.6601    0.0000 O   0  0  0  0  0  0  0  0  0  0  0  0
   -2.9520   -4.6564    0.0000 C   0  0  0  0  0  0  0  0  0  0  0  0
   -4.3786   -5.1199    0.0000 N   0  0  0  0  0  0  0  0  0  0  0  0
   -4.6904   -6.5871    0.0000 C   0  0  0  0  0  0  0  0  0  0  0  0
   -6.1170   -7.0506    0.0000 C   0  0  0  0  0  0  0  0  0  0  0  0
   -6.4289   -8.5179    0.0000 C   0  0  0  0  0  0  0  0  0  0  0  0
   -5.3142   -9.5216    0.0000 C   0  0  0  0  0  0  0  0  0  0  0  0
   -5.6260  -10.9888    0.0000 Cl  0  0  0  0  0  0  0  0  0  0  0  0
   -3.8876   -9.0580    0.0000 C   0  0  0  0  0  0  0  0  0  0  0  0
   -3.5757   -7.5908    0.0000 C   0  0  0  0  0  0  0  0  0  0  0  0
   -2.1491   -7.1273    0.0000 Cl  0  0  0  0  0  0  0  0  0  0  0  0
   -2.6401   -3.1891    0.0000 N   0  0  0  0  0  0  0  0  0  0  0  0
   -1.2135   -2.7256    0.0000 C   0  0  0  0  0  0  0  0  0  0  0  0
   -0.0000   -3.6073    0.0000 C   0  0  0  0  0  0  0  0  0  0  0  0
    1.2135   -2.7256    0.0000 N   0  0  0  0  0  0  0  0  0  0  0  0
    0.7500   -1.2990    0.0000 C   0  0  0  0  0  0  0  0  0  0  0  0
    1.5000    0.0000    0.0000 C   0  0  0  0  0  0  0  0  0  0  0  0
    0.7500    1.2990    0.0000 C   0  0  0  0  0  0  0  0  0  0  0  0
   -0.7500    1.2990    0.0000 C   0  0  0  0  0  0  0  0  0  0  0  0
   -1.5000    2.5981    0.0000 N   0  0  0  0  0  0  0  0  0  0  0  0
   -2.9918    2.7549    0.0000 C   0  0  0  0  0  0  0  0  0  0  0  0
   -3.3037    4.2221    0.0000 C   0  0  0  0  0  0  0  0  0  0  0  0
   -2.0046    4.9721    0.0000 C   0  0  0  0  0  0  0  0  0  0  0  0
   -0.8899    3.9684    0.0000 C   0  0  0  0  0  0  0  0  0  0  0  0
    0.5773    4.2803    0.0000 C   0  0  0  0  0  0  0  0  0  0  0  0
    1.5810    3.1655    0.0000 C   0  0  0  0  0  0  0  0  0  0  0  0
    3.0482    3.4774    0.0000 C   0  0  0  0  0  0  0  0  0  0  0  0
    4.0519    2.3627    0.0000 F   0  0  0  0  0  0  0  0  0  0  0  0
    3.5118    4.9040    0.0000 C   0  0  0  0  0  0  0  0  0  0  0  0
    2.5081    6.0187    0.0000 C   0  0  0  0  0  0  0  0  0  0  0  0
    1.0409    5.7068    0.0000 C   0  0  0  0  0  0  0  0  0  0  0  0
    0.0372    6.8216    0.0000 F   0  0  0  0  0  0  0  0  0  0  0  0
   -1.5000    0.0000    0.0000 N   0  0  0  0  0  0  0  0  0  0  0  0
   -0.7500   -1.2990    0.0000 N   0  0  0  0  0  0  0  0  0  0  0  0
  1  2  2  0
  2  3  1  0
  3  4  1  0
  4  5  2  0
  5  6  1  0
  6  7  2  0
  7  8  1  0
  7  9  1  0
  9 10  2  0
 10 11  1  0
  2 12  1  0
 12 13  1  0
 13 14  2  0
 14 15  1  0
 15 16  2  0
 16 17  1  0
 17 18  2  0
 18 19  1  0
 19 20  1  0
 20 21  1  0
 21 22  1  0
 22 23  1  0
 23 24  1  0
 24 25  1  6
 25 26  2  0
 26 27  1  0
 27 28  1  0
 27 29  2  0
 29 30  1  0
 30 31  2  0
 31 32  1  0
 19 33  2  0
 33 34  1  0
 10  4  1  0
 34 13  1  0
 34 16  1  0
 24 20  1  0
 31 25  1  0
M  END
>  <Compound_ID>  (222) 
CHEMBL4112590

>  <Molecule Name>  (222) 
nan

>  <Molecular Weight>  (222) 
503.34

>  <AlogP>  (222) 
6.3

>  <Smiles>  (222) 
O=C(Nc1ccc(Cl)cc1Cl)Nc1cnc2ccc(N3CCC[C@@H]3c3cc(F)ccc3F)nn12

>  <Standard Type>  (222) 
IC50

>  <Standard Relation>  (222) 
'='

>  <Standard Units>  (222) 
nM

>  <Standard Value>  (222) 
39.4

>  <Assay ChEMBL ID>  (222) 
CHEMBL3887826

>  <Assay Description>  (222) 
ELISA Assay: An enzyme-linked immunosorbant assay (ELISA) was used to assess TrkA kinase activity in the presence of inhibitors. Immulon 4HBX 384-well microtiter plates (Thermo part #8755) were coated with a 0.025 mg/mL solution of poly (Glu, Ala, Tyr; 6:3:1; Sigma P3899). Various concentrations of test compound, 2.5 nM TrkA (Invitrogen Corp., histidine-tagged recombinant human TrkA, cytoplasmic domain), and 500 uM ATP were incubated for 25 minutes at ambient temperature in the coated plates while shaking. The assay buffer consisted of 25 mM MOPS pH 7.5, 0.005% (v/v) Triton X-100 and 5 mM MgCl2. The reaction mixture was removed from the plate by washing with PBS containing 0.1% (v/v) Tween 20. The phosphorylated reaction product was detected using 0.2 ug/mL of a phosphotyrosine specific monoclonal antibody (clone PY20) conjugated to horseradish peroxidase in conjunction with the TMB Peroxidase Substrate System (KPL).

>  <BAO Format ID>  (222) 
BAO_0000357

>  <BAO Label>  (222) 
single protein format

>  <Assay Organism>  (222) 
None

>  <Target ChEMBL ID>  (222) 
CHEMBL2815

>  <Target Name>  (222) 
Nerve growth factor receptor Trk-A

>  <Target Organism>  (222) 
Homo sapiens

>  <Target Type>  (222) 
SINGLE PROTEIN

>  <Document ChEMBL ID>  (222) 
CHEMBL3886465

>  <Source Description>  (222) 
BindingDB Database

>  <Document Journal>  (222) 
nan

>  <Document Year>  (222) 
2016.0

>  <Active>  (222) 
1.0

>  <bits>  (222) 
<rdkit.DataStructs.cDataStructs.ExplicitBitVect object at 0x00000159F6036180>

>  <Group>  (222) 
G2

$$$$

     RDKit          2D

 34 41  0  0  0  0  0  0  0  0999 V2000
    3.4199   -7.0384    0.0000 C   0  0  0  0  0  0  0  0  0  0  0  0
    2.5382   -5.8249    0.0000 C   0  0  0  0  0  0  0  0  0  0  0  0
    3.2490   -4.5040    0.0000 O   0  0  0  0  0  0  0  0  0  0  0  0
    2.6595   -3.1247    0.0000 C   0  0  0  0  0  0  0  0  0  0  0  0
    4.0638   -3.6517    0.0000 C   0  0  0  0  0  0  0  0  0  0  0  0
    3.9965   -5.1502    0.0000 C   0  0  0  0  0  0  0  0  0  0  0  0
    4.2423   -6.6300    0.0000 O   0  0  0  0  0  0  0  0  0  0  0  0
    5.4938   -5.0605    0.0000 C   0  0  0  0  0  0  0  0  0  0  0  0
    6.3202   -6.3124    0.0000 N   0  0  0  0  0  0  0  0  0  0  0  0
    6.1648   -3.7190    0.0000 O   0  0  0  0  0  0  0  0  0  0  0  0
    1.2135   -2.7256    0.0000 N   0  0  0  0  0  0  0  0  0  0  0  0
    0.7500   -1.2990    0.0000 C   0  0  0  0  0  0  0  0  0  0  0  0
    1.5000    0.0000    0.0000 C   0  0  0  0  0  0  0  0  0  0  0  0
    0.7500    1.2990    0.0000 C   0  0  0  0  0  0  0  0  0  0  0  0
   -0.7500    1.2990    0.0000 C   0  0  0  0  0  0  0  0  0  0  0  0
   -1.5000    0.0000    0.0000 C   0  0  0  0  0  0  0  0  0  0  0  0
   -0.7500   -1.2990    0.0000 C   0  0  0  0  0  0  0  0  0  0  0  0
   -1.2135   -2.7256    0.0000 C   0  0  0  0  0  0  0  0  0  0  0  0
   -2.5518   -3.5691    0.0000 C   0  0  0  0  0  0  0  0  0  0  0  0
   -2.6191   -5.0676    0.0000 C   0  0  0  0  0  0  0  0  0  0  0  0
   -1.3550   -5.8751    0.0000 C   0  0  0  0  0  0  0  0  0  0  0  0
   -1.0212   -7.3375    0.0000 C   0  0  0  0  0  0  0  0  0  0  0  0
   -1.8846   -8.5641    0.0000 C   0  0  0  0  0  0  0  0  0  0  0  0
   -1.2541   -9.9251    0.0000 C   0  0  0  0  0  0  0  0  0  0  0  0
    0.2399  -10.0596    0.0000 C   0  0  0  0  0  0  0  0  0  0  0  0
    1.1033   -8.8330    0.0000 C   0  0  0  0  0  0  0  0  0  0  0  0
    0.4728   -7.4720    0.0000 C   0  0  0  0  0  0  0  0  0  0  0  0
    1.0623   -6.0927    0.0000 N   0  0  0  0  0  0  0  0  0  0  0  0
   -0.0673   -5.1058    0.0000 C   0  0  0  0  0  0  0  0  0  0  0  0
   -0.0000   -3.6073    0.0000 C   0  0  0  0  0  0  0  0  0  0  0  0
   -4.0650   -5.4667    0.0000 C   0  0  0  0  0  0  0  0  0  0  0  0
   -4.8913   -4.2148    0.0000 N   0  0  0  0  0  0  0  0  0  0  0  0
   -3.9561   -3.0421    0.0000 C   0  0  0  0  0  0  0  0  0  0  0  0
   -4.3552   -1.5961    0.0000 O   0  0  0  0  0  0  0  0  0  0  0  0
  2  1  1  6
  2  3  1  0
  3  4  1  0
  4  5  1  1
  5  6  1  0
  6  7  1  6
  6  8  1  0
  8  9  1  0
  8 10  2  0
  4 11  1  0
 11 12  1  0
 12 13  2  0
 13 14  1  0
 14 15  2  0
 15 16  1  0
 16 17  2  0
 17 18  1  0
 18 19  2  0
 19 20  1  0
 20 21  2  0
 21 22  1  0
 22 23  2  0
 23 24  1  0
 24 25  2  0
 25 26  1  0
 26 27  2  0
 27 28  1  0
 28 29  1  0
 29 30  2  0
 20 31  1  0
 31 32  1  0
 32 33  1  0
 33 34  2  0
  6  2  1  0
 30 11  1  0
 28  2  1  0
 17 12  1  0
 30 18  1  0
 33 19  1  0
 29 21  1  0
 27 22  1  0
M  END
>  <Compound_ID>  (223) 
CHEMBL2113065

>  <Molecule Name>  (223) 
nan

>  <Molecular Weight>  (223) 
452.47

>  <AlogP>  (223) 
2.97

>  <Smiles>  (223) 
C[C@]12O[C@H](C[C@@]1(O)C(N)=O)n1c3ccccc3c3c4c(c5c6ccccc6n2c5c31)CNC4=O

>  <Standard Type>  (223) 
IC50

>  <Standard Relation>  (223) 
'='

>  <Standard Units>  (223) 
nM

>  <Standard Value>  (223) 
29.0

>  <Assay ChEMBL ID>  (223) 
CHEMBL832085

>  <Assay Description>  (223) 
Inhibition of baculovirus expressed human trkA

>  <BAO Format ID>  (223) 
BAO_0000357

>  <BAO Label>  (223) 
single protein format

>  <Assay Organism>  (223) 
Homo sapiens

>  <Target ChEMBL ID>  (223) 
CHEMBL2815

>  <Target Name>  (223) 
Nerve growth factor receptor Trk-A

>  <Target Organism>  (223) 
Homo sapiens

>  <Target Type>  (223) 
SINGLE PROTEIN

>  <Document ChEMBL ID>  (223) 
CHEMBL1139527

>  <Source Description>  (223) 
Scientific Literature

>  <Document Journal>  (223) 
J Med Chem

>  <Document Year>  (223) 
2005.0

>  <Active>  (223) 
1.0

>  <bits>  (223) 
<rdkit.DataStructs.cDataStructs.ExplicitBitVect object at 0x00000159F6035C40>

>  <Group>  (223) 
G2

$$$$

     RDKit          2D

 31 34  0  0  0  0  0  0  0  0999 V2000
    3.7500   -1.2990    0.0000 C   0  0  0  0  0  0  0  0  0  0  0  0
    3.0000   -2.5981    0.0000 C   0  0  0  0  0  0  0  0  0  0  0  0
    3.7500   -3.8971    0.0000 C   0  0  0  0  0  0  0  0  0  0  0  0
    5.2500   -3.8971    0.0000 C   0  0  0  0  0  0  0  0  0  0  0  0
    6.0000   -5.1962    0.0000 C   0  0  0  0  0  0  0  0  0  0  0  0
    7.5000   -5.1962    0.0000 F   0  0  0  0  0  0  0  0  0  0  0  0
    5.2500   -6.4952    0.0000 C   0  0  0  0  0  0  0  0  0  0  0  0
    3.7500   -6.4952    0.0000 C   0  0  0  0  0  0  0  0  0  0  0  0
    3.0000   -5.1962    0.0000 C   0  0  0  0  0  0  0  0  0  0  0  0
    1.5000   -5.1962    0.0000 F   0  0  0  0  0  0  0  0  0  0  0  0
    1.5000   -2.5981    0.0000 N   0  0  0  0  0  0  0  0  0  0  0  0
    0.7500   -3.8971    0.0000 C   0  0  0  0  0  0  0  0  0  0  0  0
    0.7500   -1.2990    0.0000 C   0  0  0  0  0  0  0  0  0  0  0  0
    1.5000    0.0000    0.0000 C   0  0  0  0  0  0  0  0  0  0  0  0
    0.7500    1.2990    0.0000 C   0  0  0  0  0  0  0  0  0  0  0  0
   -0.7500    1.2990    0.0000 N   0  0  0  0  0  0  0  0  0  0  0  0
   -1.7537    2.4138    0.0000 N   0  0  0  0  0  0  0  0  0  0  0  0
   -3.1240    1.8037    0.0000 C   0  0  0  0  0  0  0  0  0  0  0  0
   -2.9672    0.3119    0.0000 C   0  0  0  0  0  0  0  0  0  0  0  0
   -4.0819   -0.6918    0.0000 N   0  0  0  0  0  0  0  0  0  0  0  0
   -5.5085   -0.2283    0.0000 C   0  0  0  0  0  0  0  0  0  0  0  0
   -5.8204    1.2389    0.0000 O   0  0  0  0  0  0  0  0  0  0  0  0
   -6.6232   -1.2320    0.0000 N   0  0  0  0  0  0  0  0  0  0  0  0
   -8.0498   -0.7685    0.0000 C   0  0  0  0  0  0  0  0  0  0  0  0
   -9.1645   -1.7722    0.0000 C   0  0  0  0  0  0  0  0  0  0  0  0
   -8.8527   -3.2394    0.0000 N   0  0  0  0  0  0  0  0  0  0  0  0
   -9.9674   -4.2431    0.0000 C   0  0  0  0  0  0  0  0  0  0  0  0
   -7.4261   -3.7029    0.0000 C   0  0  0  0  0  0  0  0  0  0  0  0
   -6.3114   -2.6992    0.0000 C   0  0  0  0  0  0  0  0  0  0  0  0
   -1.5000    0.0000    0.0000 C   0  0  0  0  0  0  0  0  0  0  0  0
   -0.7500   -1.2990    0.0000 N   0  0  0  0  0  0  0  0  0  0  0  0
  2  1  1  6
  2  3  1  0
  3  4  2  0
  4  5  1  0
  5  6  1  0
  5  7  2  0
  7  8  1  0
  8  9  2  0
  9 10  1  0
  2 11  1  0
 11 12  1  0
 11 13  1  0
 13 14  1  0
 14 15  2  0
 15 16  1  0
 16 17  1  0
 17 18  2  0
 18 19  1  0
 19 20  1  0
 20 21  1  0
 21 22  2  0
 21 23  1  0
 23 24  1  0
 24 25  1  0
 25 26  1  0
 26 27  1  0
 26 28  1  0
 28 29  1  0
 19 30  2  0
 30 31  1  0
  9  3  1  0
 31 13  2  0
 30 16  1  0
 29 23  1  0
M  END
>  <Compound_ID>  (224) 
CHEMBL4782487

>  <Molecule Name>  (224) 
nan

>  <Molecular Weight>  (224) 
429.48

>  <AlogP>  (224) 
2.98

>  <Smiles>  (224) 
C[C@H](c1cc(F)ccc1F)N(C)c1ccn2ncc(NC(=O)N3CCN(C)CC3)c2n1

>  <Standard Type>  (224) 
IC50

>  <Standard Relation>  (224) 
'='

>  <Standard Units>  (224) 
nM

>  <Standard Value>  (224) 
21.0

>  <Assay ChEMBL ID>  (224) 
CHEMBL4678168

>  <Assay Description>  (224) 
Inhibition of Trk-A (unknown origin)

>  <BAO Format ID>  (224) 
BAO_0000357

>  <BAO Label>  (224) 
single protein format

>  <Assay Organism>  (224) 
Homo sapiens

>  <Target ChEMBL ID>  (224) 
CHEMBL2815

>  <Target Name>  (224) 
Nerve growth factor receptor Trk-A

>  <Target Organism>  (224) 
Homo sapiens

>  <Target Type>  (224) 
SINGLE PROTEIN

>  <Document ChEMBL ID>  (224) 
CHEMBL4673327

>  <Source Description>  (224) 
Scientific Literature

>  <Document Journal>  (224) 
Bioorg Med Chem Lett

>  <Document Year>  (224) 
2021.0

>  <Active>  (224) 
1.0

>  <bits>  (224) 
<rdkit.DataStructs.cDataStructs.ExplicitBitVect object at 0x00000159F6034040>

>  <Group>  (224) 
G2

$$$$

     RDKit          2D

 33 37  0  0  0  0  0  0  0  0999 V2000
   -2.9520   -4.6564    0.0000 C   0  0  0  0  0  0  0  0  0  0  0  0
   -2.6401   -3.1891    0.0000 C   0  0  0  0  0  0  0  0  0  0  0  0
   -3.7548   -2.1855    0.0000 C   0  0  0  0  0  0  0  0  0  0  0  0
   -1.2135   -2.7256    0.0000 N   0  0  0  0  0  0  0  0  0  0  0  0
   -0.0000   -3.6073    0.0000 C   0  0  0  0  0  0  0  0  0  0  0  0
    1.2135   -2.7256    0.0000 C   0  0  0  0  0  0  0  0  0  0  0  0
    2.6401   -3.1891    0.0000 C   0  0  0  0  0  0  0  0  0  0  0  0
    3.7548   -2.1855    0.0000 O   0  0  0  0  0  0  0  0  0  0  0  0
    2.9520   -4.6564    0.0000 C   0  0  0  0  0  0  0  0  0  0  0  0
    1.8373   -5.6601    0.0000 C   0  0  0  0  0  0  0  0  0  0  0  0
    2.1491   -7.1273    0.0000 N   0  0  0  0  0  0  0  0  0  0  0  0
    3.5757   -7.5908    0.0000 C   0  0  0  0  0  0  0  0  0  0  0  0
    4.6904   -6.5871    0.0000 C   0  0  0  0  0  0  0  0  0  0  0  0
    6.1170   -7.0506    0.0000 N   0  0  0  0  0  0  0  0  0  0  0  0
    6.4289   -8.5179    0.0000 C   0  0  0  0  0  0  0  0  0  0  0  0
    5.3142   -9.5216    0.0000 O   0  0  0  0  0  0  0  0  0  0  0  0
    7.8555   -8.9814    0.0000 C   0  0  0  0  0  0  0  0  0  0  0  0
    8.1673  -10.4486    0.0000 C   0  0  0  0  0  0  0  0  0  0  0  0
    7.0526  -11.4523    0.0000 C   0  0  0  0  0  0  0  0  0  0  0  0
    7.3645  -12.9195    0.0000 C   0  0  0  0  0  0  0  0  0  0  0  0
    8.7911  -13.3831    0.0000 C   0  0  0  0  0  0  0  0  0  0  0  0
    9.9058  -12.3794    0.0000 C   0  0  0  0  0  0  0  0  0  0  0  0
    9.5939  -10.9121    0.0000 C   0  0  0  0  0  0  0  0  0  0  0  0
   11.2048  -13.1294    0.0000 C   0  0  0  0  0  0  0  0  0  0  0  0
   10.8930  -14.5966    0.0000 C   0  0  0  0  0  0  0  0  0  0  0  0
    9.4012  -14.7534    0.0000 O   0  0  0  0  0  0  0  0  0  0  0  0
    4.3786   -5.1199    0.0000 C   0  0  0  0  0  0  0  0  0  0  0  0
    0.7500   -1.2990    0.0000 C   0  0  0  0  0  0  0  0  0  0  0  0
    1.5000    0.0000    0.0000 C   0  0  0  0  0  0  0  0  0  0  0  0
    0.7500    1.2990    0.0000 N   0  0  0  0  0  0  0  0  0  0  0  0
   -0.7500    1.2990    0.0000 C   0  0  0  0  0  0  0  0  0  0  0  0
   -1.5000    0.0000    0.0000 N   0  0  0  0  0  0  0  0  0  0  0  0
   -0.7500   -1.2990    0.0000 C   0  0  0  0  0  0  0  0  0  0  0  0
  1  2  1  0
  2  3  1  0
  2  4  1  0
  4  5  1  0
  5  6  2  0
  6  7  1  0
  7  8  2  0
  7  9  1  0
  9 10  2  0
 10 11  1  0
 11 12  2  0
 12 13  1  0
 13 14  1  0
 14 15  1  0
 15 16  2  0
 15 17  1  0
 17 18  1  0
 18 19  2  0
 19 20  1  0
 20 21  2  0
 21 22  1  0
 22 23  2  0
 22 24  1  0
 24 25  1  0
 25 26  1  0
 13 27  2  0
  6 28  1  0
 28 29  2  0
 29 30  1  0
 30 31  2  0
 31 32  1  0
 32 33  2  0
 33  4  1  0
 27  9  1  0
 33 28  1  0
 23 18  1  0
 26 21  1  0
M  END
>  <Compound_ID>  (225) 
CHEMBL3661487

>  <Molecule Name>  (225) 
nan

>  <Molecular Weight>  (225) 
441.49

>  <AlogP>  (225) 
3.75

>  <Smiles>  (225) 
CC(C)n1cc(C(=O)c2cncc(NC(=O)Cc3ccc4c(c3)CCO4)c2)c2cncnc21

>  <Standard Type>  (225) 
IC50

>  <Standard Relation>  (225) 
'='

>  <Standard Units>  (225) 
nM

>  <Standard Value>  (225) 
41.5

>  <Assay ChEMBL ID>  (225) 
CHEMBL3887033

>  <Assay Description>  (225) 
Enzyme Assay: Isolated TRK Enzyme assays use the HTRF KinEASE-TK kit (Cisbio Cat# 62TK0PEJ) with recombinant His-tagged cytoplasmic domains of each TRK receptor sourced from Invitrogen (see table below). This activity-assay measures the phosphorylation of tyrosine residues within a substrate from the HTRF kit which has been validated by Cisbio for a variety of tyrosine kinases including the TRK receptors. Assay details: Target:TRKA; Invitrogen Cat# PV3144; Amino acids:aa 441-796; FAC enzyme:4nM; FAC ATP:40uM; Assay Reaction Time:35min.

>  <BAO Format ID>  (225) 
BAO_0000357

>  <BAO Label>  (225) 
single protein format

>  <Assay Organism>  (225) 
None

>  <Target ChEMBL ID>  (225) 
CHEMBL2815

>  <Target Name>  (225) 
Nerve growth factor receptor Trk-A

>  <Target Organism>  (225) 
Homo sapiens

>  <Target Type>  (225) 
SINGLE PROTEIN

>  <Document ChEMBL ID>  (225) 
CHEMBL3639348

>  <Source Description>  (225) 
BindingDB Database

>  <Document Journal>  (225) 
nan

>  <Document Year>  (225) 
2014.0

>  <Active>  (225) 
1.0

>  <bits>  (225) 
<rdkit.DataStructs.cDataStructs.ExplicitBitVect object at 0x00000159F60342E0>

>  <Group>  (225) 
G2

$$$$

     RDKit          2D

 31 34  0  0  0  0  0  0  0  0999 V2000
   -4.6904   -6.5871    0.0000 C   0  0  0  0  0  0  0  0  0  0  0  0
   -4.3786   -5.1199    0.0000 C   0  0  0  0  0  0  0  0  0  0  0  0
   -2.9520   -4.6564    0.0000 N   0  0  0  0  0  0  0  0  0  0  0  0
   -2.6401   -3.1891    0.0000 C   0  0  0  0  0  0  0  0  0  0  0  0
   -3.7548   -2.1855    0.0000 O   0  0  0  0  0  0  0  0  0  0  0  0
   -1.2135   -2.7256    0.0000 C   0  0  0  0  0  0  0  0  0  0  0  0
   -0.0000   -3.6073    0.0000 C   0  0  0  0  0  0  0  0  0  0  0  0
    1.2135   -2.7256    0.0000 N   0  0  0  0  0  0  0  0  0  0  0  0
    0.7500   -1.2990    0.0000 N   0  0  0  0  0  0  0  0  0  0  0  0
    1.5000    0.0000    0.0000 C   0  0  0  0  0  0  0  0  0  0  0  0
    0.7500    1.2990    0.0000 C   0  0  0  0  0  0  0  0  0  0  0  0
   -0.7500    1.2990    0.0000 C   0  0  0  0  0  0  0  0  0  0  0  0
   -1.5000    2.5981    0.0000 N   0  0  0  0  0  0  0  0  0  0  0  0
   -2.9918    2.7549    0.0000 C   0  0  0  0  0  0  0  0  0  0  0  0
   -3.3037    4.2221    0.0000 C   0  0  0  0  0  0  0  0  0  0  0  0
   -4.6740    4.8322    0.0000 O   0  0  0  0  0  0  0  0  0  0  0  0
   -2.0046    4.9721    0.0000 C   0  0  0  0  0  0  0  0  0  0  0  0
   -0.8899    3.9684    0.0000 C   0  0  0  0  0  0  0  0  0  0  0  0
    0.5773    4.2803    0.0000 C   0  0  0  0  0  0  0  0  0  0  0  0
    1.5810    3.1655    0.0000 C   0  0  0  0  0  0  0  0  0  0  0  0
    3.0482    3.4774    0.0000 C   0  0  0  0  0  0  0  0  0  0  0  0
    3.5118    4.9040    0.0000 C   0  0  0  0  0  0  0  0  0  0  0  0
    2.5081    6.0187    0.0000 C   0  0  0  0  0  0  0  0  0  0  0  0
    2.9716    7.4453    0.0000 F   0  0  0  0  0  0  0  0  0  0  0  0
    1.0409    5.7068    0.0000 C   0  0  0  0  0  0  0  0  0  0  0  0
   -1.5000    0.0000    0.0000 N   0  0  0  0  0  0  0  0  0  0  0  0
   -0.7500   -1.2990    0.0000 C   0  0  0  0  0  0  0  0  0  0  0  0
   -5.4933   -4.1162    0.0000 C   0  0  0  0  0  0  0  0  0  0  0  0
   -6.6080   -3.1125    0.0000 F   0  0  0  0  0  0  0  0  0  0  0  0
   -6.4970   -5.2309    0.0000 F   0  0  0  0  0  0  0  0  0  0  0  0
   -4.4896   -3.0015    0.0000 F   0  0  0  0  0  0  0  0  0  0  0  0
  1  2  1  0
  2  3  1  0
  3  4  1  0
  4  5  2  0
  4  6  1  0
  6  7  1  0
  7  8  2  0
  8  9  1  0
  9 10  1  0
 10 11  2  0
 11 12  1  0
 12 13  1  0
 13 14  1  0
 14 15  1  0
 15 16  1  0
 15 17  1  0
 17 18  1  0
 18 19  1  0
 19 20  2  0
 20 21  1  0
 21 22  2  0
 22 23  1  0
 23 24  1  0
 23 25  2  0
 12 26  2  0
 26 27  1  0
  2 28  1  0
 28 29  1  0
 28 30  1  0
 28 31  1  0
 27  6  2  0
 27  9  1  0
 18 13  1  0
 25 19  1  0
M  END
>  <Compound_ID>  (226) 
CHEMBL3676081

>  <Molecule Name>  (226) 
nan

>  <Molecular Weight>  (226) 
437.4

>  <AlogP>  (226) 
2.86

>  <Smiles>  (226) 
CC(NC(=O)c1cnn2ccc(N3CC(O)CC3c3cccc(F)c3)nc12)C(F)(F)F

>  <Standard Type>  (226) 
IC50

>  <Standard Relation>  (226) 
'='

>  <Standard Units>  (226) 
nM

>  <Standard Value>  (226) 
3.1

>  <Assay ChEMBL ID>  (226) 
CHEMBL3887070

>  <Assay Description>  (226) 
ELISA Assay: An enzyme-linked immunosorbant assay (ELISA) was used to assess TrkA kinase activity in the presence of inhibitors. Immulon 4HBX 384-well microtiter plates (Thermo part #8755) were coated with a 0.025 mg/mL solution of poly (Glu, Ala, Tyr; 6:3:1; Sigma P3899). Various concentrations of test compound, 2.5 nM TrkA (Invitrogen Corp., histidine-tagged recombinant human TrkA, cytoplasmic domain), and 500 uM ATP were incubated for 25 minutes at ambient temperature in the coated plates while shaking The assay buffer consisted of 25 mM MOPS pH 7.5, 0.005% (v/v) Triton X-100 and 5 mM MgCl2. The reaction mixture was removed from the plate by washing with PBS containing 0.1% (v/v) Tween 20. The phosphorylated reaction product was detected using 0.2 ug/mL of a phosphotyrosine specific monoclonal antibody (clone PY20) conjugated to horseradish peroxidase in conjunction with the TMB Peroxidase Substrate System (KPL).

>  <BAO Format ID>  (226) 
BAO_0000357

>  <BAO Label>  (226) 
single protein format

>  <Assay Organism>  (226) 
None

>  <Target ChEMBL ID>  (226) 
CHEMBL2815

>  <Target Name>  (226) 
Nerve growth factor receptor Trk-A

>  <Target Organism>  (226) 
Homo sapiens

>  <Target Type>  (226) 
SINGLE PROTEIN

>  <Document ChEMBL ID>  (226) 
CHEMBL3638907

>  <Source Description>  (226) 
BindingDB Database

>  <Document Journal>  (226) 
nan

>  <Document Year>  (226) 
2014.0

>  <Active>  (226) 
1.0

>  <bits>  (226) 
<rdkit.DataStructs.cDataStructs.ExplicitBitVect object at 0x00000159F60362D0>

>  <Group>  (226) 
G2

$$$$

     RDKit          2D

 28 31  0  0  0  0  0  0  0  0999 V2000
   -4.6904   -6.5871    0.0000 C   0  0  0  0  0  0  0  0  0  0  0  0
   -4.3786   -5.1199    0.0000 C   0  0  0  0  0  0  0  0  0  0  0  0
   -5.4933   -4.1162    0.0000 C   0  0  0  0  0  0  0  0  0  0  0  0
   -2.9520   -4.6564    0.0000 N   0  0  0  0  0  0  0  0  0  0  0  0
   -2.6401   -3.1891    0.0000 C   0  0  0  0  0  0  0  0  0  0  0  0
   -3.7548   -2.1855    0.0000 O   0  0  0  0  0  0  0  0  0  0  0  0
   -1.2135   -2.7256    0.0000 C   0  0  0  0  0  0  0  0  0  0  0  0
   -0.0000   -3.6073    0.0000 C   0  0  0  0  0  0  0  0  0  0  0  0
    1.2135   -2.7256    0.0000 N   0  0  0  0  0  0  0  0  0  0  0  0
    0.7500   -1.2990    0.0000 N   0  0  0  0  0  0  0  0  0  0  0  0
    1.5000    0.0000    0.0000 C   0  0  0  0  0  0  0  0  0  0  0  0
    0.7500    1.2990    0.0000 C   0  0  0  0  0  0  0  0  0  0  0  0
   -0.7500    1.2990    0.0000 C   0  0  0  0  0  0  0  0  0  0  0  0
   -1.5000    2.5981    0.0000 N   0  0  0  0  0  0  0  0  0  0  0  0
   -2.9918    2.7549    0.0000 C   0  0  0  0  0  0  0  0  0  0  0  0
   -3.3037    4.2221    0.0000 C   0  0  0  0  0  0  0  0  0  0  0  0
   -4.6740    4.8322    0.0000 O   0  0  0  0  0  0  0  0  0  0  0  0
   -2.0046    4.9721    0.0000 C   0  0  0  0  0  0  0  0  0  0  0  0
   -0.8899    3.9684    0.0000 C   0  0  0  0  0  0  0  0  0  0  0  0
    0.5773    4.2803    0.0000 C   0  0  0  0  0  0  0  0  0  0  0  0
    1.5810    3.1655    0.0000 C   0  0  0  0  0  0  0  0  0  0  0  0
    3.0482    3.4774    0.0000 C   0  0  0  0  0  0  0  0  0  0  0  0
    3.5118    4.9040    0.0000 C   0  0  0  0  0  0  0  0  0  0  0  0
    2.5081    6.0187    0.0000 C   0  0  0  0  0  0  0  0  0  0  0  0
    2.9716    7.4453    0.0000 F   0  0  0  0  0  0  0  0  0  0  0  0
    1.0409    5.7068    0.0000 C   0  0  0  0  0  0  0  0  0  0  0  0
   -1.5000    0.0000    0.0000 N   0  0  0  0  0  0  0  0  0  0  0  0
   -0.7500   -1.2990    0.0000 C   0  0  0  0  0  0  0  0  0  0  0  0
  1  2  1  0
  2  3  1  0
  2  4  1  0
  4  5  1  0
  5  6  2  0
  5  7  1  0
  7  8  1  0
  8  9  2  0
  9 10  1  0
 10 11  1  0
 11 12  2  0
 12 13  1  0
 13 14  1  0
 14 15  1  0
 15 16  1  0
 16 17  1  1
 16 18  1  0
 18 19  1  0
 19 20  1  6
 20 21  2  0
 21 22  1  0
 22 23  2  0
 23 24  1  0
 24 25  1  0
 24 26  2  0
 13 27  2  0
 27 28  1  0
 28  7  2  0
 28 10  1  0
 19 14  1  0
 26 20  1  0
M  END
>  <Compound_ID>  (227) 
CHEMBL3676082

>  <Molecule Name>  (227) 
nan

>  <Molecular Weight>  (227) 
383.43

>  <AlogP>  (227) 
2.32

>  <Smiles>  (227) 
CC(C)NC(=O)c1cnn2ccc(N3C[C@@H](O)C[C@@H]3c3cccc(F)c3)nc12

>  <Standard Type>  (227) 
IC50

>  <Standard Relation>  (227) 
'='

>  <Standard Units>  (227) 
nM

>  <Standard Value>  (227) 
5.8

>  <Assay ChEMBL ID>  (227) 
CHEMBL3887070

>  <Assay Description>  (227) 
ELISA Assay: An enzyme-linked immunosorbant assay (ELISA) was used to assess TrkA kinase activity in the presence of inhibitors. Immulon 4HBX 384-well microtiter plates (Thermo part #8755) were coated with a 0.025 mg/mL solution of poly (Glu, Ala, Tyr; 6:3:1; Sigma P3899). Various concentrations of test compound, 2.5 nM TrkA (Invitrogen Corp., histidine-tagged recombinant human TrkA, cytoplasmic domain), and 500 uM ATP were incubated for 25 minutes at ambient temperature in the coated plates while shaking The assay buffer consisted of 25 mM MOPS pH 7.5, 0.005% (v/v) Triton X-100 and 5 mM MgCl2. The reaction mixture was removed from the plate by washing with PBS containing 0.1% (v/v) Tween 20. The phosphorylated reaction product was detected using 0.2 ug/mL of a phosphotyrosine specific monoclonal antibody (clone PY20) conjugated to horseradish peroxidase in conjunction with the TMB Peroxidase Substrate System (KPL).

>  <BAO Format ID>  (227) 
BAO_0000357

>  <BAO Label>  (227) 
single protein format

>  <Assay Organism>  (227) 
None

>  <Target ChEMBL ID>  (227) 
CHEMBL2815

>  <Target Name>  (227) 
Nerve growth factor receptor Trk-A

>  <Target Organism>  (227) 
Homo sapiens

>  <Target Type>  (227) 
SINGLE PROTEIN

>  <Document ChEMBL ID>  (227) 
CHEMBL3638907

>  <Source Description>  (227) 
BindingDB Database

>  <Document Journal>  (227) 
nan

>  <Document Year>  (227) 
2014.0

>  <Active>  (227) 
1.0

>  <bits>  (227) 
<rdkit.DataStructs.cDataStructs.ExplicitBitVect object at 0x00000159F6034970>

>  <Group>  (227) 
G2

$$$$

     RDKit          2D

 32 36  0  0  0  0  0  0  0  0999 V2000
   -2.9520   -4.6564    0.0000 C   0  0  0  0  0  0  0  0  0  0  0  0
   -2.6401   -3.1891    0.0000 C   0  0  0  0  0  0  0  0  0  0  0  0
   -3.7548   -2.1855    0.0000 C   0  0  0  0  0  0  0  0  0  0  0  0
   -1.2135   -2.7256    0.0000 N   0  0  0  0  0  0  0  0  0  0  0  0
   -0.0000   -3.6073    0.0000 C   0  0  0  0  0  0  0  0  0  0  0  0
    1.2135   -2.7256    0.0000 C   0  0  0  0  0  0  0  0  0  0  0  0
    2.6401   -3.1891    0.0000 C   0  0  0  0  0  0  0  0  0  0  0  0
    3.7548   -2.1855    0.0000 O   0  0  0  0  0  0  0  0  0  0  0  0
    2.9520   -4.6564    0.0000 C   0  0  0  0  0  0  0  0  0  0  0  0
    1.8373   -5.6601    0.0000 C   0  0  0  0  0  0  0  0  0  0  0  0
    2.1491   -7.1273    0.0000 N   0  0  0  0  0  0  0  0  0  0  0  0
    3.5757   -7.5908    0.0000 C   0  0  0  0  0  0  0  0  0  0  0  0
    4.6904   -6.5871    0.0000 C   0  0  0  0  0  0  0  0  0  0  0  0
    6.1170   -7.0506    0.0000 N   0  0  0  0  0  0  0  0  0  0  0  0
    6.4289   -8.5179    0.0000 C   0  0  0  0  0  0  0  0  0  0  0  0
    5.3142   -9.5216    0.0000 O   0  0  0  0  0  0  0  0  0  0  0  0
    7.8555   -8.9814    0.0000 C   0  0  0  0  0  0  0  0  0  0  0  0
    8.9702   -7.9777    0.0000 C   0  0  0  0  0  0  0  0  0  0  0  0
   10.3968   -8.4412    0.0000 C   0  0  0  0  0  0  0  0  0  0  0  0
   10.7086   -9.9084    0.0000 C   0  0  0  0  0  0  0  0  0  0  0  0
   12.0077  -10.6584    0.0000 C   0  0  0  0  0  0  0  0  0  0  0  0
   11.6958  -12.1257    0.0000 N   0  0  0  0  0  0  0  0  0  0  0  0
   10.2040  -12.2825    0.0000 N   0  0  0  0  0  0  0  0  0  0  0  0
    9.5939  -10.9121    0.0000 C   0  0  0  0  0  0  0  0  0  0  0  0
    8.1673  -10.4486    0.0000 N   0  0  0  0  0  0  0  0  0  0  0  0
    4.3786   -5.1199    0.0000 C   0  0  0  0  0  0  0  0  0  0  0  0
    0.7500   -1.2990    0.0000 C   0  0  0  0  0  0  0  0  0  0  0  0
    1.5000    0.0000    0.0000 C   0  0  0  0  0  0  0  0  0  0  0  0
    0.7500    1.2990    0.0000 N   0  0  0  0  0  0  0  0  0  0  0  0
   -0.7500    1.2990    0.0000 C   0  0  0  0  0  0  0  0  0  0  0  0
   -1.5000    0.0000    0.0000 N   0  0  0  0  0  0  0  0  0  0  0  0
   -0.7500   -1.2990    0.0000 C   0  0  0  0  0  0  0  0  0  0  0  0
  1  2  1  0
  2  3  1  0
  2  4  1  0
  4  5  1  0
  5  6  2  0
  6  7  1  0
  7  8  2  0
  7  9  1  0
  9 10  2  0
 10 11  1  0
 11 12  2  0
 12 13  1  0
 13 14  1  0
 14 15  1  0
 15 16  2  0
 15 17  1  0
 17 18  1  0
 18 19  2  0
 19 20  1  0
 20 21  2  0
 21 22  1  0
 22 23  1  0
 23 24  2  0
 24 25  1  0
 13 26  2  0
  6 27  1  0
 27 28  2  0
 28 29  1  0
 29 30  2  0
 30 31  1  0
 31 32  2  0
 32  4  1  0
 26  9  1  0
 32 27  1  0
 25 17  2  0
 24 20  1  0
M  END
>  <Compound_ID>  (228) 
CHEMBL3671387

>  <Molecule Name>  (228) 
nan

>  <Molecular Weight>  (228) 
426.44

>  <AlogP>  (228) 
3.16

>  <Smiles>  (228) 
CC(C)n1cc(C(=O)c2cncc(NC(=O)c3ccc4c[nH]nc4n3)c2)c2cncnc21

>  <Standard Type>  (228) 
IC50

>  <Standard Relation>  (228) 
'='

>  <Standard Units>  (228) 
nM

>  <Standard Value>  (228) 
67.0

>  <Assay ChEMBL ID>  (228) 
CHEMBL3887033

>  <Assay Description>  (228) 
Enzyme Assay: Isolated TRK Enzyme assays use the HTRF KinEASE-TK kit (Cisbio Cat# 62TK0PEJ) with recombinant His-tagged cytoplasmic domains of each TRK receptor sourced from Invitrogen (see table below). This activity-assay measures the phosphorylation of tyrosine residues within a substrate from the HTRF kit which has been validated by Cisbio for a variety of tyrosine kinases including the TRK receptors. Assay details: Target:TRKA; Invitrogen Cat# PV3144; Amino acids:aa 441-796; FAC enzyme:4nM; FAC ATP:40uM; Assay Reaction Time:35min.

>  <BAO Format ID>  (228) 
BAO_0000357

>  <BAO Label>  (228) 
single protein format

>  <Assay Organism>  (228) 
None

>  <Target ChEMBL ID>  (228) 
CHEMBL2815

>  <Target Name>  (228) 
Nerve growth factor receptor Trk-A

>  <Target Organism>  (228) 
Homo sapiens

>  <Target Type>  (228) 
SINGLE PROTEIN

>  <Document ChEMBL ID>  (228) 
CHEMBL3639348

>  <Source Description>  (228) 
BindingDB Database

>  <Document Journal>  (228) 
nan

>  <Document Year>  (228) 
2014.0

>  <Active>  (228) 
1.0

>  <bits>  (228) 
<rdkit.DataStructs.cDataStructs.ExplicitBitVect object at 0x00000159F6037840>

>  <Group>  (228) 
G2

$$$$

     RDKit          2D

 41 45  0  0  0  0  0  0  0  0999 V2000
   -3.0000    2.5981    0.0000 C   0  0  0  0  0  0  0  0  0  0  0  0
   -1.5000    2.5981    0.0000 C   0  0  0  0  0  0  0  0  0  0  0  0
   -0.7500    3.8971    0.0000 C   0  0  0  0  0  0  0  0  0  0  0  0
   -0.7500    1.2990    0.0000 C   0  0  0  0  0  0  0  0  0  0  0  0
   -1.5000   -0.0000    0.0000 N   0  0  0  0  0  0  0  0  0  0  0  0
   -0.7500   -1.2990    0.0000 C   0  0  0  0  0  0  0  0  0  0  0  0
    0.7500   -1.2990    0.0000 C   0  0  0  0  0  0  0  0  0  0  0  0
    1.5000   -2.5981    0.0000 C   0  0  0  0  0  0  0  0  0  0  0  0
    2.2500   -3.8971    0.0000 F   0  0  0  0  0  0  0  0  0  0  0  0
    2.7990   -1.8481    0.0000 F   0  0  0  0  0  0  0  0  0  0  0  0
    0.2010   -3.3481    0.0000 F   0  0  0  0  0  0  0  0  0  0  0  0
    1.5000   -0.0000    0.0000 C   0  0  0  0  0  0  0  0  0  0  0  0
    0.7500    1.2990    0.0000 C   0  0  0  0  0  0  0  0  0  0  0  0
    1.5000    2.5981    0.0000 N   0  0  0  0  0  0  0  0  0  0  0  0
    3.0000    2.5981    0.0000 C   0  0  0  0  0  0  0  0  0  0  0  0
    3.7500    1.2990    0.0000 O   0  0  0  0  0  0  0  0  0  0  0  0
    3.7500    3.8971    0.0000 N   0  0  0  0  0  0  0  0  0  0  0  0
    5.2500    3.8971    0.0000 C   0  0  0  0  0  0  0  0  0  0  0  0
    6.0000    2.5981    0.0000 C   0  0  0  0  0  0  0  0  0  0  0  0
    7.5000    2.5981    0.0000 N   0  0  0  0  0  0  0  0  0  0  0  0
    8.2500    3.8971    0.0000 C   0  0  0  0  0  0  0  0  0  0  0  0
    9.7500    3.8971    0.0000 O   0  0  0  0  0  0  0  0  0  0  0  0
   10.5000    2.5981    0.0000 C   0  0  0  0  0  0  0  0  0  0  0  0
    9.7500    1.2990    0.0000 C   0  0  0  0  0  0  0  0  0  0  0  0
   10.5000   -0.0000    0.0000 C   0  0  0  0  0  0  0  0  0  0  0  0
   12.0000   -0.0000    0.0000 C   0  0  0  0  0  0  0  0  0  0  0  0
   12.7500   -1.2990    0.0000 C   0  0  0  0  0  0  0  0  0  0  0  0
   14.2418   -1.4558    0.0000 C   0  0  0  0  0  0  0  0  0  0  0  0
   14.5537   -2.9231    0.0000 N   0  0  0  0  0  0  0  0  0  0  0  0
   13.2546   -3.6731    0.0000 C   0  0  0  0  0  0  0  0  0  0  0  0
   13.0978   -5.1648    0.0000 N   0  0  0  0  0  0  0  0  0  0  0  0
   14.2125   -6.1685    0.0000 C   0  0  0  0  0  0  0  0  0  0  0  0
   13.6024   -7.5388    0.0000 C   0  0  0  0  0  0  0  0  0  0  0  0
   12.1106   -7.3821    0.0000 C   0  0  0  0  0  0  0  0  0  0  0  0
   11.7988   -5.9148    0.0000 C   0  0  0  0  0  0  0  0  0  0  0  0
   10.4285   -5.3047    0.0000 O   0  0  0  0  0  0  0  0  0  0  0  0
   12.1399   -2.6694    0.0000 S   0  0  0  0  0  0  0  0  0  0  0  0
   12.7500    1.2990    0.0000 C   0  0  0  0  0  0  0  0  0  0  0  0
   12.0000    2.5981    0.0000 C   0  0  0  0  0  0  0  0  0  0  0  0
    7.5000    5.1962    0.0000 N   0  0  0  0  0  0  0  0  0  0  0  0
    6.0000    5.1962    0.0000 C   0  0  0  0  0  0  0  0  0  0  0  0
  1  2  1  0
  2  3  1  0
  2  4  1  0
  4  5  2  0
  5  6  1  0
  6  7  2  0
  7  8  1  0
  8  9  1  0
  8 10  1  0
  8 11  1  0
  7 12  1  0
 12 13  2  0
 13 14  1  0
 14 15  1  0
 15 16  2  0
 15 17  1  0
 17 18  1  0
 18 19  2  0
 19 20  1  0
 20 21  2  0
 21 22  1  0
 22 23  1  0
 23 24  2  0
 24 25  1  0
 25 26  2  0
 26 27  1  0
 27 28  2  0
 28 29  1  0
 29 30  2  0
 30 31  1  0
 31 32  1  0
 32 33  1  0
 33 34  1  0
 34 35  1  0
 35 36  2  0
 30 37  1  0
 26 38  1  0
 38 39  2  0
 21 40  1  0
 40 41  2  0
 13  4  1  0
 41 18  1  0
 39 23  1  0
 37 27  1  0
 35 31  1  0
M  END
>  <Compound_ID>  (229) 
CHEMBL3934105

>  <Molecule Name>  (229) 
nan

>  <Molecular Weight>  (229) 
583.6

>  <AlogP>  (229) 
6.7

>  <Smiles>  (229) 
CC(C)c1ncc(C(F)(F)F)cc1NC(=O)Nc1cnc(Oc2ccc(-c3cnc(N4CCCC4=O)s3)cc2)nc1

>  <Standard Type>  (229) 
IC50

>  <Standard Relation>  (229) 
'='

>  <Standard Units>  (229) 
nM

>  <Standard Value>  (229) 
90.0

>  <Assay ChEMBL ID>  (229) 
CHEMBL3887906

>  <Assay Description>  (229) 
LanthaScreen Kinase Assay: TrkA-inhibiting activity was measured according to the following method using LanthaScreen kinase assay reagents (Invitrogen; Fluorescein-Poly GT, LanthaScreen Tb-PY20 and TR-FRET Dilution Buffer), TrkA (Invitrogen), ATP (Sigma-Aldrich), a kinase reaction buffer (50 mM HEPES buffer (Sigma-Aldrich) (pH 7.5) containing 0.01% Brij35 (Sigma-Aldrich), 10 mM MgCl2 (Sigma-Aldrich) and 1 mM EGTA (Sigma-Aldrich)) and 0.5 M EDTA (pH 8.0) (Invitrogen).The present compound was dissolved in dimethylsulfoxide (hereinafter abbreviated as DMSO) to prepare a 10 mM solution. The test compound at 10 mM was distributed into a 96-well plate and serially diluted with DMSO with the geometrical ratio of 3. The serial dilutions (DMSO solutions) were diluted with the kinase reaction buffer to 20-fold to prepare solutions of the present compound with 5-times concentrations (DMSO concentration: 5%). TrkA was diluted with the kinase reaction buffer to prepare a solution at 38.5 ng/mL (enzyme solution). Adenosine

>  <BAO Format ID>  (229) 
BAO_0000357

>  <BAO Label>  (229) 
single protein format

>  <Assay Organism>  (229) 
None

>  <Target ChEMBL ID>  (229) 
CHEMBL2815

>  <Target Name>  (229) 
Nerve growth factor receptor Trk-A

>  <Target Organism>  (229) 
Homo sapiens

>  <Target Type>  (229) 
SINGLE PROTEIN

>  <Document ChEMBL ID>  (229) 
CHEMBL3886498

>  <Source Description>  (229) 
BindingDB Database

>  <Document Journal>  (229) 
nan

>  <Document Year>  (229) 
2016.0

>  <Active>  (229) 
1.0

>  <bits>  (229) 
<rdkit.DataStructs.cDataStructs.ExplicitBitVect object at 0x00000159F6037AE0>

>  <Group>  (229) 
G2

$$$$

     RDKit          2D

 32 36  0  0  0  0  0  0  0  0999 V2000
   -2.9520   -4.6564    0.0000 C   0  0  0  0  0  0  0  0  0  0  0  0
   -2.6401   -3.1891    0.0000 C   0  0  0  0  0  0  0  0  0  0  0  0
   -3.7548   -2.1855    0.0000 C   0  0  0  0  0  0  0  0  0  0  0  0
   -1.2135   -2.7256    0.0000 N   0  0  0  0  0  0  0  0  0  0  0  0
   -0.0000   -3.6073    0.0000 C   0  0  0  0  0  0  0  0  0  0  0  0
    1.2135   -2.7256    0.0000 C   0  0  0  0  0  0  0  0  0  0  0  0
    2.6401   -3.1891    0.0000 C   0  0  0  0  0  0  0  0  0  0  0  0
    3.7548   -2.1855    0.0000 O   0  0  0  0  0  0  0  0  0  0  0  0
    2.9520   -4.6564    0.0000 C   0  0  0  0  0  0  0  0  0  0  0  0
    1.8373   -5.6601    0.0000 C   0  0  0  0  0  0  0  0  0  0  0  0
    2.1491   -7.1273    0.0000 N   0  0  0  0  0  0  0  0  0  0  0  0
    3.5757   -7.5908    0.0000 C   0  0  0  0  0  0  0  0  0  0  0  0
    4.6904   -6.5871    0.0000 C   0  0  0  0  0  0  0  0  0  0  0  0
    6.1170   -7.0506    0.0000 N   0  0  0  0  0  0  0  0  0  0  0  0
    6.4289   -8.5179    0.0000 C   0  0  0  0  0  0  0  0  0  0  0  0
    5.3142   -9.5216    0.0000 O   0  0  0  0  0  0  0  0  0  0  0  0
    7.8555   -8.9814    0.0000 C   0  0  0  0  0  0  0  0  0  0  0  0
    9.0690   -8.0997    0.0000 C   0  0  0  0  0  0  0  0  0  0  0  0
   10.2825   -8.9814    0.0000 N   0  0  0  0  0  0  0  0  0  0  0  0
   11.7091   -8.5179    0.0000 C   0  0  0  0  0  0  0  0  0  0  0  0
   13.0456   -9.1988    0.0000 C   0  0  0  0  0  0  0  0  0  0  0  0
   13.7266   -7.8623    0.0000 C   0  0  0  0  0  0  0  0  0  0  0  0
   12.3901   -7.1814    0.0000 C   0  0  0  0  0  0  0  0  0  0  0  0
    9.8190  -10.4080    0.0000 C   0  0  0  0  0  0  0  0  0  0  0  0
    8.3190  -10.4080    0.0000 N   0  0  0  0  0  0  0  0  0  0  0  0
    4.3786   -5.1199    0.0000 C   0  0  0  0  0  0  0  0  0  0  0  0
    0.7500   -1.2990    0.0000 C   0  0  0  0  0  0  0  0  0  0  0  0
    1.5000    0.0000    0.0000 C   0  0  0  0  0  0  0  0  0  0  0  0
    0.7500    1.2990    0.0000 N   0  0  0  0  0  0  0  0  0  0  0  0
   -0.7500    1.2990    0.0000 C   0  0  0  0  0  0  0  0  0  0  0  0
   -1.5000    0.0000    0.0000 N   0  0  0  0  0  0  0  0  0  0  0  0
   -0.7500   -1.2990    0.0000 C   0  0  0  0  0  0  0  0  0  0  0  0
  1  2  1  0
  2  3  1  0
  2  4  1  0
  4  5  1  0
  5  6  2  0
  6  7  1  0
  7  8  2  0
  7  9  1  0
  9 10  2  0
 10 11  1  0
 11 12  2  0
 12 13  1  0
 13 14  1  0
 14 15  1  0
 15 16  2  0
 15 17  1  0
 17 18  2  0
 18 19  1  0
 19 20  1  0
 20 21  1  0
 21 22  1  0
 22 23  1  0
 19 24  1  0
 24 25  2  0
 13 26  2  0
  6 27  1  0
 27 28  2  0
 28 29  1  0
 29 30  2  0
 30 31  1  0
 31 32  2  0
 32  4  1  0
 26  9  1  0
 32 27  1  0
 25 17  1  0
 23 20  1  0
M  END
>  <Compound_ID>  (230) 
CHEMBL3671381

>  <Molecule Name>  (230) 
nan

>  <Molecular Weight>  (230) 
429.48

>  <AlogP>  (230) 
3.81

>  <Smiles>  (230) 
CC(C)n1cc(C(=O)c2cncc(NC(=O)c3cn(C4CCC4)cn3)c2)c2cncnc21

>  <Standard Type>  (230) 
IC50

>  <Standard Relation>  (230) 
'='

>  <Standard Units>  (230) 
nM

>  <Standard Value>  (230) 
25.8

>  <Assay ChEMBL ID>  (230) 
CHEMBL3887033

>  <Assay Description>  (230) 
Enzyme Assay: Isolated TRK Enzyme assays use the HTRF KinEASE-TK kit (Cisbio Cat# 62TK0PEJ) with recombinant His-tagged cytoplasmic domains of each TRK receptor sourced from Invitrogen (see table below). This activity-assay measures the phosphorylation of tyrosine residues within a substrate from the HTRF kit which has been validated by Cisbio for a variety of tyrosine kinases including the TRK receptors. Assay details: Target:TRKA; Invitrogen Cat# PV3144; Amino acids:aa 441-796; FAC enzyme:4nM; FAC ATP:40uM; Assay Reaction Time:35min.

>  <BAO Format ID>  (230) 
BAO_0000357

>  <BAO Label>  (230) 
single protein format

>  <Assay Organism>  (230) 
None

>  <Target ChEMBL ID>  (230) 
CHEMBL2815

>  <Target Name>  (230) 
Nerve growth factor receptor Trk-A

>  <Target Organism>  (230) 
Homo sapiens

>  <Target Type>  (230) 
SINGLE PROTEIN

>  <Document ChEMBL ID>  (230) 
CHEMBL3639348

>  <Source Description>  (230) 
BindingDB Database

>  <Document Journal>  (230) 
nan

>  <Document Year>  (230) 
2014.0

>  <Active>  (230) 
1.0

>  <bits>  (230) 
<rdkit.DataStructs.cDataStructs.ExplicitBitVect object at 0x00000159F6037BC0>

>  <Group>  (230) 
G2

$$$$

     RDKit          2D

 31 34  0  0  0  0  0  0  0  0999 V2000
   -3.2232   -6.8990    0.0000 C   0  0  0  0  0  0  0  0  0  0  0  0
   -4.6904   -6.5871    0.0000 C   0  0  0  0  0  0  0  0  0  0  0  0
   -6.1577   -6.2752    0.0000 C   0  0  0  0  0  0  0  0  0  0  0  0
   -5.0023   -8.0543    0.0000 C   0  0  0  0  0  0  0  0  0  0  0  0
   -3.8876   -9.0580    0.0000 O   0  0  0  0  0  0  0  0  0  0  0  0
   -4.3786   -5.1199    0.0000 C   0  0  0  0  0  0  0  0  0  0  0  0
   -2.9520   -4.6564    0.0000 N   0  0  0  0  0  0  0  0  0  0  0  0
   -2.6401   -3.1891    0.0000 C   0  0  0  0  0  0  0  0  0  0  0  0
   -3.7548   -2.1855    0.0000 O   0  0  0  0  0  0  0  0  0  0  0  0
   -1.2135   -2.7256    0.0000 C   0  0  0  0  0  0  0  0  0  0  0  0
   -0.0000   -3.6073    0.0000 C   0  0  0  0  0  0  0  0  0  0  0  0
    1.2135   -2.7256    0.0000 N   0  0  0  0  0  0  0  0  0  0  0  0
    0.7500   -1.2990    0.0000 N   0  0  0  0  0  0  0  0  0  0  0  0
    1.5000    0.0000    0.0000 C   0  0  0  0  0  0  0  0  0  0  0  0
    0.7500    1.2990    0.0000 C   0  0  0  0  0  0  0  0  0  0  0  0
   -0.7500    1.2990    0.0000 C   0  0  0  0  0  0  0  0  0  0  0  0
   -1.5000    2.5981    0.0000 N   0  0  0  0  0  0  0  0  0  0  0  0
   -2.9918    2.7549    0.0000 C   0  0  0  0  0  0  0  0  0  0  0  0
   -3.3037    4.2221    0.0000 C   0  0  0  0  0  0  0  0  0  0  0  0
   -2.0046    4.9721    0.0000 C   0  0  0  0  0  0  0  0  0  0  0  0
   -0.8899    3.9684    0.0000 C   0  0  0  0  0  0  0  0  0  0  0  0
    0.5773    4.2803    0.0000 C   0  0  0  0  0  0  0  0  0  0  0  0
    1.5810    3.1655    0.0000 C   0  0  0  0  0  0  0  0  0  0  0  0
    3.0482    3.4774    0.0000 C   0  0  0  0  0  0  0  0  0  0  0  0
    4.0519    2.3627    0.0000 F   0  0  0  0  0  0  0  0  0  0  0  0
    3.5118    4.9040    0.0000 C   0  0  0  0  0  0  0  0  0  0  0  0
    2.5081    6.0187    0.0000 C   0  0  0  0  0  0  0  0  0  0  0  0
    1.0409    5.7068    0.0000 C   0  0  0  0  0  0  0  0  0  0  0  0
    0.0372    6.8216    0.0000 F   0  0  0  0  0  0  0  0  0  0  0  0
   -1.5000    0.0000    0.0000 N   0  0  0  0  0  0  0  0  0  0  0  0
   -0.7500   -1.2990    0.0000 C   0  0  0  0  0  0  0  0  0  0  0  0
  1  2  1  0
  2  3  1  0
  2  4  1  0
  4  5  1  0
  2  6  1  0
  6  7  1  0
  7  8  1  0
  8  9  2  0
  8 10  1  0
 10 11  1  0
 11 12  2  0
 12 13  1  0
 13 14  1  0
 14 15  2  0
 15 16  1  0
 16 17  1  0
 17 18  1  0
 18 19  1  0
 19 20  1  0
 20 21  1  0
 21 22  1  0
 22 23  2  0
 23 24  1  0
 24 25  1  0
 24 26  2  0
 26 27  1  0
 27 28  2  0
 28 29  1  0
 16 30  2  0
 30 31  1  0
 31 10  2  0
 31 13  1  0
 21 17  1  0
 28 22  1  0
M  END
>  <Compound_ID>  (231) 
CHEMBL3676037

>  <Molecule Name>  (231) 
nan

>  <Molecular Weight>  (231) 
429.47

>  <AlogP>  (231) 
3.1

>  <Smiles>  (231) 
CC(C)(CO)CNC(=O)c1cnn2ccc(N3CCCC3c3cc(F)ccc3F)nc12

>  <Standard Type>  (231) 
IC50

>  <Standard Relation>  (231) 
'='

>  <Standard Units>  (231) 
nM

>  <Standard Value>  (231) 
1.2

>  <Assay ChEMBL ID>  (231) 
CHEMBL3887070

>  <Assay Description>  (231) 
ELISA Assay: An enzyme-linked immunosorbant assay (ELISA) was used to assess TrkA kinase activity in the presence of inhibitors. Immulon 4HBX 384-well microtiter plates (Thermo part #8755) were coated with a 0.025 mg/mL solution of poly (Glu, Ala, Tyr; 6:3:1; Sigma P3899). Various concentrations of test compound, 2.5 nM TrkA (Invitrogen Corp., histidine-tagged recombinant human TrkA, cytoplasmic domain), and 500 uM ATP were incubated for 25 minutes at ambient temperature in the coated plates while shaking The assay buffer consisted of 25 mM MOPS pH 7.5, 0.005% (v/v) Triton X-100 and 5 mM MgCl2. The reaction mixture was removed from the plate by washing with PBS containing 0.1% (v/v) Tween 20. The phosphorylated reaction product was detected using 0.2 ug/mL of a phosphotyrosine specific monoclonal antibody (clone PY20) conjugated to horseradish peroxidase in conjunction with the TMB Peroxidase Substrate System (KPL).

>  <BAO Format ID>  (231) 
BAO_0000357

>  <BAO Label>  (231) 
single protein format

>  <Assay Organism>  (231) 
None

>  <Target ChEMBL ID>  (231) 
CHEMBL2815

>  <Target Name>  (231) 
Nerve growth factor receptor Trk-A

>  <Target Organism>  (231) 
Homo sapiens

>  <Target Type>  (231) 
SINGLE PROTEIN

>  <Document ChEMBL ID>  (231) 
CHEMBL3638907

>  <Source Description>  (231) 
BindingDB Database

>  <Document Journal>  (231) 
nan

>  <Document Year>  (231) 
2014.0

>  <Active>  (231) 
1.0

>  <bits>  (231) 
<rdkit.DataStructs.cDataStructs.ExplicitBitVect object at 0x00000159F6037DF0>

>  <Group>  (231) 
G2

$$$$

     RDKit          2D

 35 39  0  0  0  0  0  0  0  0999 V2000
   -2.1766   -4.6157    0.0000 C   0  0  0  0  0  0  0  0  0  0  0  0
   -2.6401   -3.1891    0.0000 C   0  0  0  0  0  0  0  0  0  0  0  0
   -3.1036   -1.7626    0.0000 C   0  0  0  0  0  0  0  0  0  0  0  0
   -4.0667   -3.6527    0.0000 C   0  0  0  0  0  0  0  0  0  0  0  0
   -5.1814   -2.6490    0.0000 O   0  0  0  0  0  0  0  0  0  0  0  0
   -1.2135   -2.7256    0.0000 N   0  0  0  0  0  0  0  0  0  0  0  0
   -0.0000   -3.6073    0.0000 C   0  0  0  0  0  0  0  0  0  0  0  0
    1.2135   -2.7256    0.0000 C   0  0  0  0  0  0  0  0  0  0  0  0
    2.6401   -3.1891    0.0000 C   0  0  0  0  0  0  0  0  0  0  0  0
    3.7548   -2.1855    0.0000 O   0  0  0  0  0  0  0  0  0  0  0  0
    2.9520   -4.6564    0.0000 C   0  0  0  0  0  0  0  0  0  0  0  0
    1.8373   -5.6601    0.0000 C   0  0  0  0  0  0  0  0  0  0  0  0
    2.1491   -7.1273    0.0000 N   0  0  0  0  0  0  0  0  0  0  0  0
    3.5757   -7.5908    0.0000 C   0  0  0  0  0  0  0  0  0  0  0  0
    4.6904   -6.5871    0.0000 C   0  0  0  0  0  0  0  0  0  0  0  0
    6.1170   -7.0506    0.0000 N   0  0  0  0  0  0  0  0  0  0  0  0
    6.4289   -8.5179    0.0000 C   0  0  0  0  0  0  0  0  0  0  0  0
    5.3142   -9.5216    0.0000 O   0  0  0  0  0  0  0  0  0  0  0  0
    7.8555   -8.9814    0.0000 C   0  0  0  0  0  0  0  0  0  0  0  0
    8.1673  -10.4486    0.0000 N   0  0  0  0  0  0  0  0  0  0  0  0
    9.5377  -11.0587    0.0000 C   0  0  0  0  0  0  0  0  0  0  0  0
    9.3809  -12.5505    0.0000 C   0  0  0  0  0  0  0  0  0  0  0  0
   10.4956  -13.5542    0.0000 C   0  0  0  0  0  0  0  0  0  0  0  0
   11.9628  -13.8661    0.0000 C   0  0  0  0  0  0  0  0  0  0  0  0
   10.9591  -14.9808    0.0000 C   0  0  0  0  0  0  0  0  0  0  0  0
    7.9136  -12.8624    0.0000 N   0  0  0  0  0  0  0  0  0  0  0  0
    7.1636  -11.5633    0.0000 N   0  0  0  0  0  0  0  0  0  0  0  0
    4.3786   -5.1199    0.0000 C   0  0  0  0  0  0  0  0  0  0  0  0
    0.7500   -1.2990    0.0000 C   0  0  0  0  0  0  0  0  0  0  0  0
    1.5000    0.0000    0.0000 C   0  0  0  0  0  0  0  0  0  0  0  0
    0.7500    1.2990    0.0000 N   0  0  0  0  0  0  0  0  0  0  0  0
   -0.7500    1.2990    0.0000 C   0  0  0  0  0  0  0  0  0  0  0  0
   -1.5000    0.0000    0.0000 C   0  0  0  0  0  0  0  0  0  0  0  0
   -3.0000    0.0000    0.0000 F   0  0  0  0  0  0  0  0  0  0  0  0
   -0.7500   -1.2990    0.0000 C   0  0  0  0  0  0  0  0  0  0  0  0
  1  2  1  0
  2  3  1  0
  2  4  1  0
  4  5  1  0
  2  6  1  0
  6  7  1  0
  7  8  2  0
  8  9  1  0
  9 10  2  0
  9 11  1  0
 11 12  2  0
 12 13  1  0
 13 14  2  0
 14 15  1  0
 15 16  1  0
 16 17  1  0
 17 18  2  0
 17 19  1  0
 19 20  1  0
 20 21  1  0
 21 22  2  0
 22 23  1  0
 23 24  1  0
 24 25  1  0
 22 26  1  0
 26 27  2  0
 15 28  2  0
  8 29  1  0
 29 30  2  0
 30 31  1  0
 31 32  2  0
 32 33  1  0
 33 34  1  0
 33 35  2  0
 35  6  1  0
 28 11  1  0
 35 29  1  0
 27 20  1  0
 25 23  1  0
M  END
>  <Compound_ID>  (232) 
CHEMBL3919312

>  <Molecule Name>  (232) 
nan

>  <Molecular Weight>  (232) 
477.5

>  <AlogP>  (232) 
2.64

>  <Smiles>  (232) 
CC(C)(CO)n1cc(C(=O)c2cncc(NC(=O)Cn3cc(C4CC4)nn3)c2)c2cncc(F)c21

>  <Standard Type>  (232) 
IC50

>  <Standard Relation>  (232) 
'='

>  <Standard Units>  (232) 
nM

>  <Standard Value>  (232) 
24.0

>  <Assay ChEMBL ID>  (232) 
CHEMBL3887111

>  <Assay Description>  (232) 
HTRF Assay: Isolated TRK Enzyme assays use the HTRF KinEASE-TK kit (Cisbio Cat#62TK0PEJ) with recombinant His-tagged cytoplasmic domains of each TRK receptor sourced from Invitrogen (see table below). This activity-assay measures the phosphorylation of tyrosine residues within a substrate from the HTRF kit which has been validated by Cisbio for a variety of tyrosine kinases including the TRK receptors.Assay Details: Invitrogen Amino FAC FAC Assay ReactionTarget Cat# acids enzyme ATP TimeTRKA PV3144 aa 441-4 nM 40 uM 35 min (NTRK1) 796 TRKB PV3616 aa 526-1 nM 1.4 uM 40 min (NTRK2) 838 TRKC PV3617 aa 510- 10 nM 15 uM 30 min (NTRK3) 8250.5 mM stock solutions of test compounds are prepared and serially diluted in 100% DMSO. A standard curve using the compound of Example 135 disclosed in WO2005/116035 of 150 uM is also prepared on each test plate. High percentage effect (HPE) is defined by 150 uM.

>  <BAO Format ID>  (232) 
BAO_0000357

>  <BAO Label>  (232) 
single protein format

>  <Assay Organism>  (232) 
None

>  <Target ChEMBL ID>  (232) 
CHEMBL2815

>  <Target Name>  (232) 
Nerve growth factor receptor Trk-A

>  <Target Organism>  (232) 
Homo sapiens

>  <Target Type>  (232) 
SINGLE PROTEIN

>  <Document ChEMBL ID>  (232) 
CHEMBL3886170

>  <Source Description>  (232) 
BindingDB Database

>  <Document Journal>  (232) 
nan

>  <Document Year>  (232) 
2015.0

>  <Active>  (232) 
1.0

>  <bits>  (232) 
<rdkit.DataStructs.cDataStructs.ExplicitBitVect object at 0x00000159F60369D0>

>  <Group>  (232) 
G2

$$$$

     RDKit          2D

 30 33  0  0  0  0  0  0  0  0999 V2000
   -4.6904   -6.5871    0.0000 C   0  0  0  0  0  0  0  0  0  0  0  0
   -4.3786   -5.1199    0.0000 N   0  0  0  0  0  0  0  0  0  0  0  0
   -5.4933   -4.1162    0.0000 C   0  0  0  0  0  0  0  0  0  0  0  0
   -6.9199   -4.5797    0.0000 C   0  0  0  0  0  0  0  0  0  0  0  0
   -8.0346   -3.5760    0.0000 O   0  0  0  0  0  0  0  0  0  0  0  0
   -2.9520   -4.6564    0.0000 C   0  0  0  0  0  0  0  0  0  0  0  0
   -1.8373   -5.6601    0.0000 O   0  0  0  0  0  0  0  0  0  0  0  0
   -2.6401   -3.1891    0.0000 N   0  0  0  0  0  0  0  0  0  0  0  0
   -1.2135   -2.7256    0.0000 C   0  0  0  0  0  0  0  0  0  0  0  0
   -0.0000   -3.6073    0.0000 C   0  0  0  0  0  0  0  0  0  0  0  0
    1.2135   -2.7256    0.0000 N   0  0  0  0  0  0  0  0  0  0  0  0
    0.7500   -1.2990    0.0000 C   0  0  0  0  0  0  0  0  0  0  0  0
    1.5000    0.0000    0.0000 C   0  0  0  0  0  0  0  0  0  0  0  0
    0.7500    1.2990    0.0000 C   0  0  0  0  0  0  0  0  0  0  0  0
   -0.7500    1.2990    0.0000 C   0  0  0  0  0  0  0  0  0  0  0  0
   -1.5000    2.5981    0.0000 N   0  0  0  0  0  0  0  0  0  0  0  0
   -2.9918    2.7549    0.0000 C   0  0  0  0  0  0  0  0  0  0  0  0
   -3.3037    4.2221    0.0000 C   0  0  0  0  0  0  0  0  0  0  0  0
   -2.0046    4.9721    0.0000 C   0  0  0  0  0  0  0  0  0  0  0  0
   -0.8899    3.9684    0.0000 C   0  0  0  0  0  0  0  0  0  0  0  0
    0.5773    4.2803    0.0000 C   0  0  0  0  0  0  0  0  0  0  0  0
    1.5810    3.1655    0.0000 C   0  0  0  0  0  0  0  0  0  0  0  0
    3.0482    3.4774    0.0000 C   0  0  0  0  0  0  0  0  0  0  0  0
    4.0519    2.3627    0.0000 F   0  0  0  0  0  0  0  0  0  0  0  0
    3.5118    4.9040    0.0000 C   0  0  0  0  0  0  0  0  0  0  0  0
    2.5081    6.0187    0.0000 C   0  0  0  0  0  0  0  0  0  0  0  0
    1.0409    5.7068    0.0000 C   0  0  0  0  0  0  0  0  0  0  0  0
    0.0372    6.8216    0.0000 F   0  0  0  0  0  0  0  0  0  0  0  0
   -1.5000    0.0000    0.0000 N   0  0  0  0  0  0  0  0  0  0  0  0
   -0.7500   -1.2990    0.0000 N   0  0  0  0  0  0  0  0  0  0  0  0
  1  2  1  0
  2  3  1  0
  3  4  1  0
  4  5  1  0
  2  6  1  0
  6  7  2  0
  6  8  1  0
  8  9  1  0
  9 10  2  0
 10 11  1  0
 11 12  2  0
 12 13  1  0
 13 14  2  0
 14 15  1  0
 15 16  1  0
 16 17  1  0
 17 18  1  0
 18 19  1  0
 19 20  1  0
 20 21  1  6
 21 22  2  0
 22 23  1  0
 23 24  1  0
 23 25  2  0
 25 26  1  0
 26 27  2  0
 27 28  1  0
 15 29  2  0
 29 30  1  0
 30  9  1  0
 30 12  1  0
 20 16  1  0
 27 21  1  0
M  END
>  <Compound_ID>  (233) 
CHEMBL4113195

>  <Molecule Name>  (233) 
nan

>  <Molecular Weight>  (233) 
416.43

>  <AlogP>  (233) 
2.81

>  <Smiles>  (233) 
CN(CCO)C(=O)Nc1cnc2ccc(N3CCC[C@@H]3c3cc(F)ccc3F)nn12

>  <Standard Type>  (233) 
IC50

>  <Standard Relation>  (233) 
'='

>  <Standard Units>  (233) 
nM

>  <Standard Value>  (233) 
10.3

>  <Assay ChEMBL ID>  (233) 
CHEMBL3887826

>  <Assay Description>  (233) 
ELISA Assay: An enzyme-linked immunosorbant assay (ELISA) was used to assess TrkA kinase activity in the presence of inhibitors. Immulon 4HBX 384-well microtiter plates (Thermo part #8755) were coated with a 0.025 mg/mL solution of poly (Glu, Ala, Tyr; 6:3:1; Sigma P3899). Various concentrations of test compound, 2.5 nM TrkA (Invitrogen Corp., histidine-tagged recombinant human TrkA, cytoplasmic domain), and 500 uM ATP were incubated for 25 minutes at ambient temperature in the coated plates while shaking. The assay buffer consisted of 25 mM MOPS pH 7.5, 0.005% (v/v) Triton X-100 and 5 mM MgCl2. The reaction mixture was removed from the plate by washing with PBS containing 0.1% (v/v) Tween 20. The phosphorylated reaction product was detected using 0.2 ug/mL of a phosphotyrosine specific monoclonal antibody (clone PY20) conjugated to horseradish peroxidase in conjunction with the TMB Peroxidase Substrate System (KPL).

>  <BAO Format ID>  (233) 
BAO_0000357

>  <BAO Label>  (233) 
single protein format

>  <Assay Organism>  (233) 
None

>  <Target ChEMBL ID>  (233) 
CHEMBL2815

>  <Target Name>  (233) 
Nerve growth factor receptor Trk-A

>  <Target Organism>  (233) 
Homo sapiens

>  <Target Type>  (233) 
SINGLE PROTEIN

>  <Document ChEMBL ID>  (233) 
CHEMBL3886465

>  <Source Description>  (233) 
BindingDB Database

>  <Document Journal>  (233) 
nan

>  <Document Year>  (233) 
2016.0

>  <Active>  (233) 
1.0

>  <bits>  (233) 
<rdkit.DataStructs.cDataStructs.ExplicitBitVect object at 0x00000159F6037CA0>

>  <Group>  (233) 
G2

$$$$

     RDKit          2D

 32 36  0  0  0  0  0  0  0  0999 V2000
   -3.7548   -2.1855    0.0000 O   0  0  0  0  0  0  0  0  0  0  0  0
   -2.6401   -3.1891    0.0000 C   0  0  0  0  0  0  0  0  0  0  0  0
   -2.9520   -4.6564    0.0000 N   0  0  0  0  0  0  0  0  0  0  0  0
   -4.3786   -5.1199    0.0000 C   0  0  0  0  0  0  0  0  0  0  0  0
   -5.4933   -4.1162    0.0000 C   0  0  0  0  0  0  0  0  0  0  0  0
   -6.9199   -4.5797    0.0000 C   0  0  0  0  0  0  0  0  0  0  0  0
   -7.2317   -6.0469    0.0000 N   0  0  0  0  0  0  0  0  0  0  0  0
   -6.1170   -7.0506    0.0000 C   0  0  0  0  0  0  0  0  0  0  0  0
   -4.6904   -6.5871    0.0000 C   0  0  0  0  0  0  0  0  0  0  0  0
   -3.5757   -7.5908    0.0000 F   0  0  0  0  0  0  0  0  0  0  0  0
   -1.2135   -2.7256    0.0000 C   0  0  0  0  0  0  0  0  0  0  0  0
   -0.0000   -3.6073    0.0000 C   0  0  0  0  0  0  0  0  0  0  0  0
    1.2135   -2.7256    0.0000 N   0  0  0  0  0  0  0  0  0  0  0  0
    0.7500   -1.2990    0.0000 N   0  0  0  0  0  0  0  0  0  0  0  0
    1.5000    0.0000    0.0000 C   0  0  0  0  0  0  0  0  0  0  0  0
    0.7500    1.2990    0.0000 C   0  0  0  0  0  0  0  0  0  0  0  0
   -0.7500    1.2990    0.0000 C   0  0  0  0  0  0  0  0  0  0  0  0
   -1.5000    2.5981    0.0000 N   0  0  0  0  0  0  0  0  0  0  0  0
   -2.9918    2.7549    0.0000 C   0  0  0  0  0  0  0  0  0  0  0  0
   -3.3037    4.2221    0.0000 C   0  0  0  0  0  0  0  0  0  0  0  0
   -2.0046    4.9721    0.0000 C   0  0  0  0  0  0  0  0  0  0  0  0
   -0.8899    3.9684    0.0000 C   0  0  0  0  0  0  0  0  0  0  0  0
    0.5773    4.2803    0.0000 C   0  0  0  0  0  0  0  0  0  0  0  0
    1.5810    3.1655    0.0000 C   0  0  0  0  0  0  0  0  0  0  0  0
    3.0482    3.4774    0.0000 C   0  0  0  0  0  0  0  0  0  0  0  0
    4.0519    2.3627    0.0000 F   0  0  0  0  0  0  0  0  0  0  0  0
    3.5118    4.9040    0.0000 C   0  0  0  0  0  0  0  0  0  0  0  0
    2.5081    6.0187    0.0000 C   0  0  0  0  0  0  0  0  0  0  0  0
    1.0409    5.7068    0.0000 C   0  0  0  0  0  0  0  0  0  0  0  0
    0.0372    6.8216    0.0000 F   0  0  0  0  0  0  0  0  0  0  0  0
   -1.5000    0.0000    0.0000 N   0  0  0  0  0  0  0  0  0  0  0  0
   -0.7500   -1.2990    0.0000 C   0  0  0  0  0  0  0  0  0  0  0  0
  1  2  2  0
  2  3  1  0
  4  3  1  1
  4  5  1  0
  5  6  1  0
  6  7  1  0
  7  8  1  0
  8  9  1  0
  9 10  1  1
  2 11  1  0
 11 12  1  0
 12 13  2  0
 13 14  1  0
 14 15  1  0
 15 16  2  0
 16 17  1  0
 17 18  1  0
 18 19  1  0
 19 20  1  0
 20 21  1  0
 21 22  1  0
 22 23  1  6
 23 24  2  0
 24 25  1  0
 25 26  1  0
 25 27  2  0
 27 28  1  0
 28 29  2  0
 29 30  1  0
 17 31  2  0
 31 32  1  0
  9  4  1  0
 32 11  2  0
 32 14  1  0
 22 18  1  0
 29 23  1  0
M  END
>  <Compound_ID>  (234) 
CHEMBL3675937

>  <Molecule Name>  (234) 
nan

>  <Molecular Weight>  (234) 
444.46

>  <AlogP>  (234) 
2.78

>  <Smiles>  (234) 
O=C(N[C@@H]1CCNC[C@@H]1F)c1cnn2ccc(N3CCC[C@@H]3c3cc(F)ccc3F)nc12

>  <Standard Type>  (234) 
IC50

>  <Standard Relation>  (234) 
'='

>  <Standard Units>  (234) 
nM

>  <Standard Value>  (234) 
1.95

>  <Assay ChEMBL ID>  (234) 
CHEMBL3887070

>  <Assay Description>  (234) 
ELISA Assay: An enzyme-linked immunosorbant assay (ELISA) was used to assess TrkA kinase activity in the presence of inhibitors. Immulon 4HBX 384-well microtiter plates (Thermo part #8755) were coated with a 0.025 mg/mL solution of poly (Glu, Ala, Tyr; 6:3:1; Sigma P3899). Various concentrations of test compound, 2.5 nM TrkA (Invitrogen Corp., histidine-tagged recombinant human TrkA, cytoplasmic domain), and 500 uM ATP were incubated for 25 minutes at ambient temperature in the coated plates while shaking The assay buffer consisted of 25 mM MOPS pH 7.5, 0.005% (v/v) Triton X-100 and 5 mM MgCl2. The reaction mixture was removed from the plate by washing with PBS containing 0.1% (v/v) Tween 20. The phosphorylated reaction product was detected using 0.2 ug/mL of a phosphotyrosine specific monoclonal antibody (clone PY20) conjugated to horseradish peroxidase in conjunction with the TMB Peroxidase Substrate System (KPL).

>  <BAO Format ID>  (234) 
BAO_0000357

>  <BAO Label>  (234) 
single protein format

>  <Assay Organism>  (234) 
None

>  <Target ChEMBL ID>  (234) 
CHEMBL2815

>  <Target Name>  (234) 
Nerve growth factor receptor Trk-A

>  <Target Organism>  (234) 
Homo sapiens

>  <Target Type>  (234) 
SINGLE PROTEIN

>  <Document ChEMBL ID>  (234) 
CHEMBL3638907

>  <Source Description>  (234) 
BindingDB Database

>  <Document Journal>  (234) 
nan

>  <Document Year>  (234) 
2014.0

>  <Active>  (234) 
1.0

>  <bits>  (234) 
<rdkit.DataStructs.cDataStructs.ExplicitBitVect object at 0x00000159F60353F0>

>  <Group>  (234) 
G2

$$$$

     RDKit          2D

 25 28  0  0  0  0  0  0  0  0999 V2000
    5.9262   -3.3786    0.0000 C   0  0  0  0  0  0  0  0  0  0  0  0
    5.4627   -1.9520    0.0000 C   0  0  0  0  0  0  0  0  0  0  0  0
    6.4664   -0.8373    0.0000 N   0  0  0  0  0  0  0  0  0  0  0  0
    6.0029    0.5893    0.0000 C   0  0  0  0  0  0  0  0  0  0  0  0
    4.5356    0.9012    0.0000 C   0  0  0  0  0  0  0  0  0  0  0  0
    4.0721    2.3277    0.0000 F   0  0  0  0  0  0  0  0  0  0  0  0
    3.5320   -0.2136    0.0000 C   0  0  0  0  0  0  0  0  0  0  0  0
    3.9955   -1.6402    0.0000 C   0  0  0  0  0  0  0  0  0  0  0  0
    2.9918   -2.7549    0.0000 C   0  0  0  0  0  0  0  0  0  0  0  0
    3.3037   -4.2221    0.0000 C   0  0  0  0  0  0  0  0  0  0  0  0
    2.0046   -4.9721    0.0000 C   0  0  0  0  0  0  0  0  0  0  0  0
    0.8899   -3.9684    0.0000 C   0  0  0  0  0  0  0  0  0  0  0  0
    1.5000   -2.5981    0.0000 N   0  0  0  0  0  0  0  0  0  0  0  0
    0.7500   -1.2990    0.0000 C   0  0  0  0  0  0  0  0  0  0  0  0
    1.5000    0.0000    0.0000 C   0  0  0  0  0  0  0  0  0  0  0  0
    0.7500    1.2990    0.0000 C   0  0  0  0  0  0  0  0  0  0  0  0
   -0.7500    1.2990    0.0000 N   0  0  0  0  0  0  0  0  0  0  0  0
   -1.7537    2.4138    0.0000 N   0  0  0  0  0  0  0  0  0  0  0  0
   -3.1240    1.8037    0.0000 C   0  0  0  0  0  0  0  0  0  0  0  0
   -2.9672    0.3119    0.0000 C   0  0  0  0  0  0  0  0  0  0  0  0
   -4.0819   -0.6918    0.0000 C   0  0  0  0  0  0  0  0  0  0  0  0
   -5.5085   -0.2283    0.0000 N   0  0  0  0  0  0  0  0  0  0  0  0
   -3.7701   -2.1590    0.0000 O   0  0  0  0  0  0  0  0  0  0  0  0
   -1.5000    0.0000    0.0000 C   0  0  0  0  0  0  0  0  0  0  0  0
   -0.7500   -1.2990    0.0000 N   0  0  0  0  0  0  0  0  0  0  0  0
  1  2  1  0
  2  3  2  0
  3  4  1  0
  4  5  2  0
  5  6  1  0
  5  7  1  0
  7  8  2  0
  8  9  1  0
  9 10  1  0
 10 11  1  0
 11 12  1  0
 12 13  1  0
 13 14  1  0
 14 15  1  0
 15 16  2  0
 16 17  1  0
 17 18  1  0
 18 19  2  0
 19 20  1  0
 20 21  1  0
 21 22  1  0
 21 23  2  0
 20 24  2  0
 24 25  1  0
  8  2  1  0
 13  9  1  0
 25 14  2  0
 24 17  1  0
M  END
>  <Compound_ID>  (235) 
CHEMBL3676055

>  <Molecule Name>  (235) 
nan

>  <Molecular Weight>  (235) 
340.36

>  <AlogP>  (235) 
2.01

>  <Smiles>  (235) 
Cc1ncc(F)cc1C1CCCN1c1ccn2ncc(C(N)=O)c2n1

>  <Standard Type>  (235) 
IC50

>  <Standard Relation>  (235) 
'='

>  <Standard Units>  (235) 
nM

>  <Standard Value>  (235) 
61.6

>  <Assay ChEMBL ID>  (235) 
CHEMBL3887070

>  <Assay Description>  (235) 
ELISA Assay: An enzyme-linked immunosorbant assay (ELISA) was used to assess TrkA kinase activity in the presence of inhibitors. Immulon 4HBX 384-well microtiter plates (Thermo part #8755) were coated with a 0.025 mg/mL solution of poly (Glu, Ala, Tyr; 6:3:1; Sigma P3899). Various concentrations of test compound, 2.5 nM TrkA (Invitrogen Corp., histidine-tagged recombinant human TrkA, cytoplasmic domain), and 500 uM ATP were incubated for 25 minutes at ambient temperature in the coated plates while shaking The assay buffer consisted of 25 mM MOPS pH 7.5, 0.005% (v/v) Triton X-100 and 5 mM MgCl2. The reaction mixture was removed from the plate by washing with PBS containing 0.1% (v/v) Tween 20. The phosphorylated reaction product was detected using 0.2 ug/mL of a phosphotyrosine specific monoclonal antibody (clone PY20) conjugated to horseradish peroxidase in conjunction with the TMB Peroxidase Substrate System (KPL).

>  <BAO Format ID>  (235) 
BAO_0000357

>  <BAO Label>  (235) 
single protein format

>  <Assay Organism>  (235) 
None

>  <Target ChEMBL ID>  (235) 
CHEMBL2815

>  <Target Name>  (235) 
Nerve growth factor receptor Trk-A

>  <Target Organism>  (235) 
Homo sapiens

>  <Target Type>  (235) 
SINGLE PROTEIN

>  <Document ChEMBL ID>  (235) 
CHEMBL3638907

>  <Source Description>  (235) 
BindingDB Database

>  <Document Journal>  (235) 
nan

>  <Document Year>  (235) 
2014.0

>  <Active>  (235) 
1.0

>  <bits>  (235) 
<rdkit.DataStructs.cDataStructs.ExplicitBitVect object at 0x00000159F60354D0>

>  <Group>  (235) 
G2

$$$$

     RDKit          2D

 45 50  0  0  0  0  0  0  0  0999 V2000
    3.0000    0.0000    0.0000 C   0  0  0  0  0  0  0  0  0  0  0  0
    1.5000    0.0000    0.0000 C   0  0  0  0  0  0  0  0  0  0  0  0
    0.7500   -1.2990    0.0000 C   0  0  0  0  0  0  0  0  0  0  0  0
   -0.7500   -1.2990    0.0000 C   0  0  0  0  0  0  0  0  0  0  0  0
   -1.5000    0.0000    0.0000 C   0  0  0  0  0  0  0  0  0  0  0  0
   -3.0000    0.0000    0.0000 N   0  0  0  0  0  0  0  0  0  0  0  0
   -3.8817   -1.2135    0.0000 N   0  0  0  0  0  0  0  0  0  0  0  0
   -5.3083   -0.7500    0.0000 C   0  0  0  0  0  0  0  0  0  0  0  0
   -6.5218   -1.6317    0.0000 C   0  0  0  0  0  0  0  0  0  0  0  0
   -7.4035   -0.4182    0.0000 C   0  0  0  0  0  0  0  0  0  0  0  0
   -5.6401   -2.8452    0.0000 C   0  0  0  0  0  0  0  0  0  0  0  0
   -7.7353   -2.5134    0.0000 C   0  0  0  0  0  0  0  0  0  0  0  0
   -5.3083    0.7500    0.0000 C   0  0  0  0  0  0  0  0  0  0  0  0
   -3.8817    1.2135    0.0000 C   0  0  0  0  0  0  0  0  0  0  0  0
   -3.4182    2.6401    0.0000 N   0  0  0  0  0  0  0  0  0  0  0  0
   -4.4218    3.7548    0.0000 C   0  0  0  0  0  0  0  0  0  0  0  0
   -5.8891    3.4430    0.0000 O   0  0  0  0  0  0  0  0  0  0  0  0
   -3.9583    5.1814    0.0000 N   0  0  0  0  0  0  0  0  0  0  0  0
   -4.9620    6.2961    0.0000 C   0  0  0  0  0  0  0  0  0  0  0  0
   -4.4985    7.7227    0.0000 C   0  0  0  0  0  0  0  0  0  0  0  0
   -5.5022    8.8374    0.0000 N   0  0  0  0  0  0  0  0  0  0  0  0
   -6.9694    8.5256    0.0000 C   0  0  0  0  0  0  0  0  0  0  0  0
   -7.9731    9.6403    0.0000 O   0  0  0  0  0  0  0  0  0  0  0  0
   -7.5096   11.0669    0.0000 C   0  0  0  0  0  0  0  0  0  0  0  0
   -6.0424   11.3787    0.0000 C   0  0  0  0  0  0  0  0  0  0  0  0
   -5.5788   12.8053    0.0000 C   0  0  0  0  0  0  0  0  0  0  0  0
   -6.5825   13.9200    0.0000 C   0  0  0  0  0  0  0  0  0  0  0  0
   -6.1190   15.3466    0.0000 C   0  0  0  0  0  0  0  0  0  0  0  0
   -7.0007   16.5601    0.0000 C   0  0  0  0  0  0  0  0  0  0  0  0
   -6.1190   17.7737    0.0000 N   0  0  0  0  0  0  0  0  0  0  0  0
   -4.6924   17.3101    0.0000 C   0  0  0  0  0  0  0  0  0  0  0  0
   -3.4789   18.1918    0.0000 N   0  0  0  0  0  0  0  0  0  0  0  0
   -3.4789   19.6918    0.0000 C   0  0  0  0  0  0  0  0  0  0  0  0
   -2.0523   20.1553    0.0000 C   0  0  0  0  0  0  0  0  0  0  0  0
   -1.1706   18.9418    0.0000 C   0  0  0  0  0  0  0  0  0  0  0  0
   -2.0523   17.7283    0.0000 C   0  0  0  0  0  0  0  0  0  0  0  0
   -1.5888   16.3017    0.0000 O   0  0  0  0  0  0  0  0  0  0  0  0
   -4.6924   15.8101    0.0000 S   0  0  0  0  0  0  0  0  0  0  0  0
   -8.0498   13.6082    0.0000 C   0  0  0  0  0  0  0  0  0  0  0  0
   -8.5133   12.1816    0.0000 C   0  0  0  0  0  0  0  0  0  0  0  0
   -7.4329    7.0990    0.0000 N   0  0  0  0  0  0  0  0  0  0  0  0
   -6.4292    5.9843    0.0000 C   0  0  0  0  0  0  0  0  0  0  0  0
   -0.7500    1.2990    0.0000 C   0  0  0  0  0  0  0  0  0  0  0  0
    0.7500    1.2990    0.0000 C   0  0  0  0  0  0  0  0  0  0  0  0
    1.5000    2.5981    0.0000 C   0  0  0  0  0  0  0  0  0  0  0  0
  1  2  1  0
  2  3  2  0
  3  4  1  0
  4  5  2  0
  5  6  1  0
  6  7  1  0
  7  8  2  0
  8  9  1  0
  9 10  1  0
  9 11  1  0
  9 12  1  0
  8 13  1  0
 13 14  2  0
 14 15  1  0
 15 16  1  0
 16 17  2  0
 16 18  1  0
 18 19  1  0
 19 20  2  0
 20 21  1  0
 21 22  2  0
 22 23  1  0
 23 24  1  0
 24 25  2  0
 25 26  1  0
 26 27  2  0
 27 28  1  0
 28 29  2  0
 29 30  1  0
 30 31  2  0
 31 32  1  0
 32 33  1  0
 33 34  1  0
 34 35  1  0
 35 36  1  0
 36 37  2  0
 31 38  1  0
 27 39  1  0
 39 40  2  0
 22 41  1  0
 41 42  2  0
  5 43  1  0
 43 44  2  0
 44 45  1  0
 44  2  1  0
 14  6  1  0
 42 19  1  0
 40 24  1  0
 38 28  1  0
 36 32  1  0
M  END
>  <Compound_ID>  (236) 
CHEMBL3964567

>  <Molecule Name>  (236) 
nan

>  <Molecular Weight>  (236) 
622.76

>  <AlogP>  (236) 
7.26

>  <Smiles>  (236) 
Cc1ccc(-n2nc(C(C)(C)C)cc2NC(=O)Nc2cnc(Oc3ccc(-c4cnc(N5CCCC5=O)s4)cc3)nc2)cc1C

>  <Standard Type>  (236) 
IC50

>  <Standard Relation>  (236) 
'='

>  <Standard Units>  (236) 
nM

>  <Standard Value>  (236) 
80.0

>  <Assay ChEMBL ID>  (236) 
CHEMBL3887906

>  <Assay Description>  (236) 
LanthaScreen Kinase Assay: TrkA-inhibiting activity was measured according to the following method using LanthaScreen kinase assay reagents (Invitrogen; Fluorescein-Poly GT, LanthaScreen Tb-PY20 and TR-FRET Dilution Buffer), TrkA (Invitrogen), ATP (Sigma-Aldrich), a kinase reaction buffer (50 mM HEPES buffer (Sigma-Aldrich) (pH 7.5) containing 0.01% Brij35 (Sigma-Aldrich), 10 mM MgCl2 (Sigma-Aldrich) and 1 mM EGTA (Sigma-Aldrich)) and 0.5 M EDTA (pH 8.0) (Invitrogen).The present compound was dissolved in dimethylsulfoxide (hereinafter abbreviated as DMSO) to prepare a 10 mM solution. The test compound at 10 mM was distributed into a 96-well plate and serially diluted with DMSO with the geometrical ratio of 3. The serial dilutions (DMSO solutions) were diluted with the kinase reaction buffer to 20-fold to prepare solutions of the present compound with 5-times concentrations (DMSO concentration: 5%). TrkA was diluted with the kinase reaction buffer to prepare a solution at 38.5 ng/mL (enzyme solution). Adenosine

>  <BAO Format ID>  (236) 
BAO_0000357

>  <BAO Label>  (236) 
single protein format

>  <Assay Organism>  (236) 
None

>  <Target ChEMBL ID>  (236) 
CHEMBL2815

>  <Target Name>  (236) 
Nerve growth factor receptor Trk-A

>  <Target Organism>  (236) 
Homo sapiens

>  <Target Type>  (236) 
SINGLE PROTEIN

>  <Document ChEMBL ID>  (236) 
CHEMBL3886498

>  <Source Description>  (236) 
BindingDB Database

>  <Document Journal>  (236) 
nan

>  <Document Year>  (236) 
2016.0

>  <Active>  (236) 
1.0

>  <bits>  (236) 
<rdkit.DataStructs.cDataStructs.ExplicitBitVect object at 0x00000159F60349E0>

>  <Group>  (236) 
G2

$$$$

     RDKit          2D

 31 35  0  0  0  0  0  0  0  0999 V2000
   -3.7548   -2.1855    0.0000 O   0  0  0  0  0  0  0  0  0  0  0  0
   -2.6401   -3.1891    0.0000 C   0  0  0  0  0  0  0  0  0  0  0  0
   -2.9520   -4.6564    0.0000 N   0  0  0  0  0  0  0  0  0  0  0  0
   -4.3786   -5.1199    0.0000 C   0  0  0  0  0  0  0  0  0  0  0  0
   -5.4933   -4.1162    0.0000 C   0  0  0  0  0  0  0  0  0  0  0  0
   -6.9199   -4.5797    0.0000 C   0  0  0  0  0  0  0  0  0  0  0  0
   -7.2317   -6.0469    0.0000 C   0  0  0  0  0  0  0  0  0  0  0  0
   -8.6583   -6.5105    0.0000 F   0  0  0  0  0  0  0  0  0  0  0  0
   -6.1170   -7.0506    0.0000 C   0  0  0  0  0  0  0  0  0  0  0  0
   -4.6904   -6.5871    0.0000 N   0  0  0  0  0  0  0  0  0  0  0  0
   -1.2135   -2.7256    0.0000 C   0  0  0  0  0  0  0  0  0  0  0  0
   -0.0000   -3.6073    0.0000 C   0  0  0  0  0  0  0  0  0  0  0  0
    1.2135   -2.7256    0.0000 N   0  0  0  0  0  0  0  0  0  0  0  0
    0.7500   -1.2990    0.0000 N   0  0  0  0  0  0  0  0  0  0  0  0
    1.5000    0.0000    0.0000 C   0  0  0  0  0  0  0  0  0  0  0  0
    0.7500    1.2990    0.0000 C   0  0  0  0  0  0  0  0  0  0  0  0
   -0.7500    1.2990    0.0000 C   0  0  0  0  0  0  0  0  0  0  0  0
   -1.5000    2.5981    0.0000 N   0  0  0  0  0  0  0  0  0  0  0  0
   -2.9918    2.7549    0.0000 C   0  0  0  0  0  0  0  0  0  0  0  0
   -3.3037    4.2221    0.0000 C   0  0  0  0  0  0  0  0  0  0  0  0
   -2.0046    4.9721    0.0000 C   0  0  0  0  0  0  0  0  0  0  0  0
   -0.8899    3.9684    0.0000 C   0  0  0  0  0  0  0  0  0  0  0  0
    0.5773    4.2803    0.0000 C   0  0  0  0  0  0  0  0  0  0  0  0
    1.5810    3.1655    0.0000 C   0  0  0  0  0  0  0  0  0  0  0  0
    3.0482    3.4774    0.0000 N   0  0  0  0  0  0  0  0  0  0  0  0
    3.5118    4.9040    0.0000 C   0  0  0  0  0  0  0  0  0  0  0  0
    2.5081    6.0187    0.0000 C   0  0  0  0  0  0  0  0  0  0  0  0
    2.9716    7.4453    0.0000 F   0  0  0  0  0  0  0  0  0  0  0  0
    1.0409    5.7068    0.0000 C   0  0  0  0  0  0  0  0  0  0  0  0
   -1.5000    0.0000    0.0000 N   0  0  0  0  0  0  0  0  0  0  0  0
   -0.7500   -1.2990    0.0000 C   0  0  0  0  0  0  0  0  0  0  0  0
  1  2  2  0
  2  3  1  0
  3  4  1  0
  4  5  2  0
  5  6  1  0
  6  7  2  0
  7  8  1  0
  7  9  1  0
  9 10  2  0
  2 11  1  0
 11 12  1  0
 12 13  2  0
 13 14  1  0
 14 15  1  0
 15 16  2  0
 16 17  1  0
 17 18  1  0
 18 19  1  0
 19 20  1  0
 20 21  1  0
 21 22  1  0
 22 23  1  6
 23 24  2  0
 24 25  1  0
 25 26  2  0
 26 27  1  0
 27 28  1  0
 27 29  2  0
 17 30  2  0
 30 31  1  0
 10  4  1  0
 31 11  2  0
 31 14  1  0
 22 18  1  0
 29 23  1  0
M  END
>  <Compound_ID>  (237) 
CHEMBL3675970

>  <Molecule Name>  (237) 
nan

>  <Molecular Weight>  (237) 
421.41

>  <AlogP>  (237) 
3.39

>  <Smiles>  (237) 
O=C(Nc1ccc(F)cn1)c1cnn2ccc(N3CCC[C@@H]3c3cncc(F)c3)nc12

>  <Standard Type>  (237) 
IC50

>  <Standard Relation>  (237) 
'='

>  <Standard Units>  (237) 
nM

>  <Standard Value>  (237) 
5.4

>  <Assay ChEMBL ID>  (237) 
CHEMBL3887070

>  <Assay Description>  (237) 
ELISA Assay: An enzyme-linked immunosorbant assay (ELISA) was used to assess TrkA kinase activity in the presence of inhibitors. Immulon 4HBX 384-well microtiter plates (Thermo part #8755) were coated with a 0.025 mg/mL solution of poly (Glu, Ala, Tyr; 6:3:1; Sigma P3899). Various concentrations of test compound, 2.5 nM TrkA (Invitrogen Corp., histidine-tagged recombinant human TrkA, cytoplasmic domain), and 500 uM ATP were incubated for 25 minutes at ambient temperature in the coated plates while shaking The assay buffer consisted of 25 mM MOPS pH 7.5, 0.005% (v/v) Triton X-100 and 5 mM MgCl2. The reaction mixture was removed from the plate by washing with PBS containing 0.1% (v/v) Tween 20. The phosphorylated reaction product was detected using 0.2 ug/mL of a phosphotyrosine specific monoclonal antibody (clone PY20) conjugated to horseradish peroxidase in conjunction with the TMB Peroxidase Substrate System (KPL).

>  <BAO Format ID>  (237) 
BAO_0000357

>  <BAO Label>  (237) 
single protein format

>  <Assay Organism>  (237) 
None

>  <Target ChEMBL ID>  (237) 
CHEMBL2815

>  <Target Name>  (237) 
Nerve growth factor receptor Trk-A

>  <Target Organism>  (237) 
Homo sapiens

>  <Target Type>  (237) 
SINGLE PROTEIN

>  <Document ChEMBL ID>  (237) 
CHEMBL3638907

>  <Source Description>  (237) 
BindingDB Database

>  <Document Journal>  (237) 
nan

>  <Document Year>  (237) 
2014.0

>  <Active>  (237) 
1.0

>  <bits>  (237) 
<rdkit.DataStructs.cDataStructs.ExplicitBitVect object at 0x00000159F60377D0>

>  <Group>  (237) 
G2

$$$$

     RDKit          2D

 34 38  0  0  0  0  0  0  0  0999 V2000
   -2.9520   -4.6564    0.0000 C   0  0  0  0  0  0  0  0  0  0  0  0
   -2.6401   -3.1891    0.0000 C   0  0  0  0  0  0  0  0  0  0  0  0
   -3.7548   -2.1855    0.0000 C   0  0  0  0  0  0  0  0  0  0  0  0
   -1.2135   -2.7256    0.0000 N   0  0  0  0  0  0  0  0  0  0  0  0
   -0.0000   -3.6073    0.0000 C   0  0  0  0  0  0  0  0  0  0  0  0
    1.2135   -2.7256    0.0000 C   0  0  0  0  0  0  0  0  0  0  0  0
    2.6401   -3.1891    0.0000 C   0  0  0  0  0  0  0  0  0  0  0  0
    3.7548   -2.1855    0.0000 O   0  0  0  0  0  0  0  0  0  0  0  0
    2.9520   -4.6564    0.0000 C   0  0  0  0  0  0  0  0  0  0  0  0
    1.8373   -5.6601    0.0000 C   0  0  0  0  0  0  0  0  0  0  0  0
    2.1491   -7.1273    0.0000 N   0  0  0  0  0  0  0  0  0  0  0  0
    3.5757   -7.5908    0.0000 C   0  0  0  0  0  0  0  0  0  0  0  0
    4.6904   -6.5871    0.0000 C   0  0  0  0  0  0  0  0  0  0  0  0
    6.1170   -7.0506    0.0000 N   0  0  0  0  0  0  0  0  0  0  0  0
    6.4289   -8.5179    0.0000 C   0  0  0  0  0  0  0  0  0  0  0  0
    5.3142   -9.5216    0.0000 O   0  0  0  0  0  0  0  0  0  0  0  0
    7.8555   -8.9814    0.0000 C   0  0  0  0  0  0  0  0  0  0  0  0
    8.1673  -10.4486    0.0000 N   0  0  0  0  0  0  0  0  0  0  0  0
    9.5377  -11.0587    0.0000 C   0  0  0  0  0  0  0  0  0  0  0  0
    9.3809  -12.5505    0.0000 C   0  0  0  0  0  0  0  0  0  0  0  0
    7.9136  -12.8624    0.0000 C   0  0  0  0  0  0  0  0  0  0  0  0
    7.3035  -14.2327    0.0000 C   0  0  0  0  0  0  0  0  0  0  0  0
    8.0535  -15.5317    0.0000 C   0  0  0  0  0  0  0  0  0  0  0  0
    7.0498  -16.6464    0.0000 C   0  0  0  0  0  0  0  0  0  0  0  0
    5.6795  -16.0363    0.0000 C   0  0  0  0  0  0  0  0  0  0  0  0
    5.8363  -14.5446    0.0000 S   0  0  0  0  0  0  0  0  0  0  0  0
    7.1636  -11.5633    0.0000 N   0  0  0  0  0  0  0  0  0  0  0  0
    4.3786   -5.1199    0.0000 C   0  0  0  0  0  0  0  0  0  0  0  0
    0.7500   -1.2990    0.0000 C   0  0  0  0  0  0  0  0  0  0  0  0
    1.5000    0.0000    0.0000 C   0  0  0  0  0  0  0  0  0  0  0  0
    0.7500    1.2990    0.0000 N   0  0  0  0  0  0  0  0  0  0  0  0
   -0.7500    1.2990    0.0000 C   0  0  0  0  0  0  0  0  0  0  0  0
   -1.5000    0.0000    0.0000 N   0  0  0  0  0  0  0  0  0  0  0  0
   -0.7500   -1.2990    0.0000 C   0  0  0  0  0  0  0  0  0  0  0  0
  1  2  1  0
  2  3  1  0
  2  4  1  0
  4  5  1  0
  5  6  2  0
  6  7  1  0
  7  8  2  0
  7  9  1  0
  9 10  2  0
 10 11  1  0
 11 12  2  0
 12 13  1  0
 13 14  1  0
 14 15  1  0
 15 16  2  0
 15 17  1  0
 17 18  1  0
 18 19  1  0
 19 20  2  0
 20 21  1  0
 21 22  1  0
 22 23  2  0
 23 24  1  0
 24 25  2  0
 25 26  1  0
 21 27  2  0
 13 28  2  0
  6 29  1  0
 29 30  2  0
 30 31  1  0
 31 32  2  0
 32 33  1  0
 33 34  2  0
 34  4  1  0
 28  9  1  0
 34 29  1  0
 27 18  1  0
 26 22  1  0
M  END
>  <Compound_ID>  (238) 
CHEMBL3661514

>  <Molecule Name>  (238) 
nan

>  <Molecular Weight>  (238) 
471.55

>  <AlogP>  (238) 
4.2

>  <Smiles>  (238) 
CC(C)n1cc(C(=O)c2cncc(NC(=O)Cn3ccc(-c4cccs4)n3)c2)c2cncnc21

>  <Standard Type>  (238) 
IC50

>  <Standard Relation>  (238) 
'='

>  <Standard Units>  (238) 
nM

>  <Standard Value>  (238) 
53.0

>  <Assay ChEMBL ID>  (238) 
CHEMBL3887033

>  <Assay Description>  (238) 
Enzyme Assay: Isolated TRK Enzyme assays use the HTRF KinEASE-TK kit (Cisbio Cat# 62TK0PEJ) with recombinant His-tagged cytoplasmic domains of each TRK receptor sourced from Invitrogen (see table below). This activity-assay measures the phosphorylation of tyrosine residues within a substrate from the HTRF kit which has been validated by Cisbio for a variety of tyrosine kinases including the TRK receptors. Assay details: Target:TRKA; Invitrogen Cat# PV3144; Amino acids:aa 441-796; FAC enzyme:4nM; FAC ATP:40uM; Assay Reaction Time:35min.

>  <BAO Format ID>  (238) 
BAO_0000357

>  <BAO Label>  (238) 
single protein format

>  <Assay Organism>  (238) 
None

>  <Target ChEMBL ID>  (238) 
CHEMBL2815

>  <Target Name>  (238) 
Nerve growth factor receptor Trk-A

>  <Target Organism>  (238) 
Homo sapiens

>  <Target Type>  (238) 
SINGLE PROTEIN

>  <Document ChEMBL ID>  (238) 
CHEMBL3639348

>  <Source Description>  (238) 
BindingDB Database

>  <Document Journal>  (238) 
nan

>  <Document Year>  (238) 
2014.0

>  <Active>  (238) 
1.0

>  <bits>  (238) 
<rdkit.DataStructs.cDataStructs.ExplicitBitVect object at 0x00000159F6037300>

>  <Group>  (238) 
G2

$$$$

     RDKit          2D

 30 32  0  0  0  0  0  0  0  0999 V2000
   -6.1170   -7.0506    0.0000 C   0  0  0  0  0  0  0  0  0  0  0  0
   -4.6904   -6.5871    0.0000 C   0  0  0  0  0  0  0  0  0  0  0  0
   -3.5757   -7.5908    0.0000 C   0  0  0  0  0  0  0  0  0  0  0  0
   -4.3786   -5.1199    0.0000 N   0  0  0  0  0  0  0  0  0  0  0  0
   -2.9520   -4.6564    0.0000 C   0  0  0  0  0  0  0  0  0  0  0  0
   -1.8373   -5.6601    0.0000 O   0  0  0  0  0  0  0  0  0  0  0  0
   -2.6401   -3.1891    0.0000 N   0  0  0  0  0  0  0  0  0  0  0  0
   -1.2135   -2.7256    0.0000 C   0  0  0  0  0  0  0  0  0  0  0  0
   -0.0000   -3.6073    0.0000 C   0  0  0  0  0  0  0  0  0  0  0  0
    1.2135   -2.7256    0.0000 N   0  0  0  0  0  0  0  0  0  0  0  0
    0.7500   -1.2990    0.0000 N   0  0  0  0  0  0  0  0  0  0  0  0
    1.5000    0.0000    0.0000 C   0  0  0  0  0  0  0  0  0  0  0  0
    0.7500    1.2990    0.0000 C   0  0  0  0  0  0  0  0  0  0  0  0
   -0.7500    1.2990    0.0000 C   0  0  0  0  0  0  0  0  0  0  0  0
   -1.5000    2.5981    0.0000 N   0  0  0  0  0  0  0  0  0  0  0  0
   -0.7500    3.8971    0.0000 C   0  0  0  0  0  0  0  0  0  0  0  0
   -1.5000    5.1962    0.0000 C   0  0  0  0  0  0  0  0  0  0  0  0
    0.7500    3.8971    0.0000 C   0  0  0  0  0  0  0  0  0  0  0  0
    1.5000    2.5981    0.0000 C   0  0  0  0  0  0  0  0  0  0  0  0
    3.0000    2.5981    0.0000 C   0  0  0  0  0  0  0  0  0  0  0  0
    3.7500    1.2990    0.0000 F   0  0  0  0  0  0  0  0  0  0  0  0
    3.7500    3.8971    0.0000 C   0  0  0  0  0  0  0  0  0  0  0  0
    3.0000    5.1962    0.0000 C   0  0  0  0  0  0  0  0  0  0  0  0
    1.5000    5.1962    0.0000 C   0  0  0  0  0  0  0  0  0  0  0  0
    0.7500    6.4952    0.0000 F   0  0  0  0  0  0  0  0  0  0  0  0
   -1.5000    0.0000    0.0000 N   0  0  0  0  0  0  0  0  0  0  0  0
   -0.7500   -1.2990    0.0000 C   0  0  0  0  0  0  0  0  0  0  0  0
   -5.4933   -4.1162    0.0000 C   0  0  0  0  0  0  0  0  0  0  0  0
   -6.9199   -4.5797    0.0000 C   0  0  0  0  0  0  0  0  0  0  0  0
   -5.1814   -2.6490    0.0000 C   0  0  0  0  0  0  0  0  0  0  0  0
  1  2  1  0
  2  3  1  0
  2  4  1  0
  4  5  1  0
  5  6  2  0
  5  7  1  0
  7  8  1  0
  8  9  1  0
  9 10  2  0
 10 11  1  0
 11 12  1  0
 12 13  2  0
 13 14  1  0
 14 15  1  0
 15 16  1  0
 16 17  1  6
 16 18  1  0
 18 19  2  0
 19 20  1  0
 20 21  1  0
 20 22  2  0
 22 23  1  0
 23 24  2  0
 24 25  1  0
 14 26  2  0
 26 27  1  0
  4 28  1  0
 28 29  1  0
 28 30  1  0
 27  8  2  0
 27 11  1  0
 24 18  1  0
M  END
>  <Compound_ID>  (239) 
CHEMBL4783042

>  <Molecule Name>  (239) 
nan

>  <Molecular Weight>  (239) 
416.48

>  <AlogP>  (239) 
4.83

>  <Smiles>  (239) 
CC(C)N(C(=O)Nc1cnn2ccc(N[C@H](C)c3cc(F)ccc3F)nc12)C(C)C

>  <Standard Type>  (239) 
IC50

>  <Standard Relation>  (239) 
'='

>  <Standard Units>  (239) 
nM

>  <Standard Value>  (239) 
3.2

>  <Assay ChEMBL ID>  (239) 
CHEMBL4678168

>  <Assay Description>  (239) 
Inhibition of Trk-A (unknown origin)

>  <BAO Format ID>  (239) 
BAO_0000357

>  <BAO Label>  (239) 
single protein format

>  <Assay Organism>  (239) 
Homo sapiens

>  <Target ChEMBL ID>  (239) 
CHEMBL2815

>  <Target Name>  (239) 
Nerve growth factor receptor Trk-A

>  <Target Organism>  (239) 
Homo sapiens

>  <Target Type>  (239) 
SINGLE PROTEIN

>  <Document ChEMBL ID>  (239) 
CHEMBL4673327

>  <Source Description>  (239) 
Scientific Literature

>  <Document Journal>  (239) 
Bioorg Med Chem Lett

>  <Document Year>  (239) 
2021.0

>  <Active>  (239) 
1.0

>  <bits>  (239) 
<rdkit.DataStructs.cDataStructs.ExplicitBitVect object at 0x00000159F6035770>

>  <Group>  (239) 
G2

$$$$

     RDKit          2D

 29 32  0  0  0  0  0  0  0  0999 V2000
    3.7500   -1.2990    0.0000 C   0  0  0  0  0  0  0  0  0  0  0  0
    3.0000   -2.5981    0.0000 C   0  0  0  0  0  0  0  0  0  0  0  0
    3.7500   -3.8971    0.0000 C   0  0  0  0  0  0  0  0  0  0  0  0
    5.2500   -3.8971    0.0000 C   0  0  0  0  0  0  0  0  0  0  0  0
    6.0000   -5.1962    0.0000 C   0  0  0  0  0  0  0  0  0  0  0  0
    7.5000   -5.1962    0.0000 F   0  0  0  0  0  0  0  0  0  0  0  0
    5.2500   -6.4952    0.0000 C   0  0  0  0  0  0  0  0  0  0  0  0
    3.7500   -6.4952    0.0000 C   0  0  0  0  0  0  0  0  0  0  0  0
    3.0000   -5.1962    0.0000 C   0  0  0  0  0  0  0  0  0  0  0  0
    1.5000   -5.1962    0.0000 F   0  0  0  0  0  0  0  0  0  0  0  0
    1.5000   -2.5981    0.0000 N   0  0  0  0  0  0  0  0  0  0  0  0
    0.7500   -3.8971    0.0000 C   0  0  0  0  0  0  0  0  0  0  0  0
    0.7500   -1.2990    0.0000 C   0  0  0  0  0  0  0  0  0  0  0  0
    1.5000    0.0000    0.0000 C   0  0  0  0  0  0  0  0  0  0  0  0
    0.7500    1.2990    0.0000 C   0  0  0  0  0  0  0  0  0  0  0  0
   -0.7500    1.2990    0.0000 N   0  0  0  0  0  0  0  0  0  0  0  0
   -1.7537    2.4138    0.0000 N   0  0  0  0  0  0  0  0  0  0  0  0
   -3.1240    1.8037    0.0000 C   0  0  0  0  0  0  0  0  0  0  0  0
   -2.9672    0.3119    0.0000 C   0  0  0  0  0  0  0  0  0  0  0  0
   -4.0819   -0.6918    0.0000 N   0  0  0  0  0  0  0  0  0  0  0  0
   -5.5085   -0.2283    0.0000 C   0  0  0  0  0  0  0  0  0  0  0  0
   -5.8204    1.2389    0.0000 O   0  0  0  0  0  0  0  0  0  0  0  0
   -6.6232   -1.2320    0.0000 N   0  0  0  0  0  0  0  0  0  0  0  0
   -8.1212   -1.1535    0.0000 C   0  0  0  0  0  0  0  0  0  0  0  0
   -8.1997   -2.6514    0.0000 C   0  0  0  0  0  0  0  0  0  0  0  0
   -9.3144   -3.6551    0.0000 O   0  0  0  0  0  0  0  0  0  0  0  0
   -6.7017   -2.7299    0.0000 C   0  0  0  0  0  0  0  0  0  0  0  0
   -1.5000    0.0000    0.0000 C   0  0  0  0  0  0  0  0  0  0  0  0
   -0.7500   -1.2990    0.0000 N   0  0  0  0  0  0  0  0  0  0  0  0
  2  1  1  6
  2  3  1  0
  3  4  2  0
  4  5  1  0
  5  6  1  0
  5  7  2  0
  7  8  1  0
  8  9  2  0
  9 10  1  0
  2 11  1  0
 11 12  1  0
 11 13  1  0
 13 14  1  0
 14 15  2  0
 15 16  1  0
 16 17  1  0
 17 18  2  0
 18 19  1  0
 19 20  1  0
 20 21  1  0
 21 22  2  0
 21 23  1  0
 23 24  1  0
 24 25  1  0
 25 26  1  0
 25 27  1  0
 19 28  2  0
 28 29  1  0
  9  3  1  0
 29 13  2  0
 28 16  1  0
 27 23  1  0
M  END
>  <Compound_ID>  (240) 
CHEMBL4745371

>  <Molecule Name>  (240) 
nan

>  <Molecular Weight>  (240) 
402.41

>  <AlogP>  (240) 
2.41

>  <Smiles>  (240) 
C[C@H](c1cc(F)ccc1F)N(C)c1ccn2ncc(NC(=O)N3CC(O)C3)c2n1

>  <Standard Type>  (240) 
IC50

>  <Standard Relation>  (240) 
'='

>  <Standard Units>  (240) 
nM

>  <Standard Value>  (240) 
42.0

>  <Assay ChEMBL ID>  (240) 
CHEMBL4678168

>  <Assay Description>  (240) 
Inhibition of Trk-A (unknown origin)

>  <BAO Format ID>  (240) 
BAO_0000357

>  <BAO Label>  (240) 
single protein format

>  <Assay Organism>  (240) 
Homo sapiens

>  <Target ChEMBL ID>  (240) 
CHEMBL2815

>  <Target Name>  (240) 
Nerve growth factor receptor Trk-A

>  <Target Organism>  (240) 
Homo sapiens

>  <Target Type>  (240) 
SINGLE PROTEIN

>  <Document ChEMBL ID>  (240) 
CHEMBL4673327

>  <Source Description>  (240) 
Scientific Literature

>  <Document Journal>  (240) 
Bioorg Med Chem Lett

>  <Document Year>  (240) 
2021.0

>  <Active>  (240) 
1.0

>  <bits>  (240) 
<rdkit.DataStructs.cDataStructs.ExplicitBitVect object at 0x00000159F60358C0>

>  <Group>  (240) 
G2

$$$$

     RDKit          2D

 36 40  0  0  0  0  0  0  0  0999 V2000
   -7.9882  -15.8540    0.0000 C   0  0  0  0  0  0  0  0  0  0  0  0
   -6.5616  -15.3904    0.0000 O   0  0  0  0  0  0  0  0  0  0  0  0
   -6.2498  -13.9232    0.0000 C   0  0  0  0  0  0  0  0  0  0  0  0
   -7.3645  -12.9195    0.0000 C   0  0  0  0  0  0  0  0  0  0  0  0
   -7.0526  -11.4523    0.0000 C   0  0  0  0  0  0  0  0  0  0  0  0
   -5.6260  -10.9888    0.0000 C   0  0  0  0  0  0  0  0  0  0  0  0
   -5.3142   -9.5216    0.0000 C   0  0  0  0  0  0  0  0  0  0  0  0
   -3.8876   -9.0580    0.0000 O   0  0  0  0  0  0  0  0  0  0  0  0
   -3.5757   -7.5908    0.0000 C   0  0  0  0  0  0  0  0  0  0  0  0
   -2.1491   -7.1273    0.0000 C   0  0  0  0  0  0  0  0  0  0  0  0
   -1.8373   -5.6601    0.0000 C   0  0  0  0  0  0  0  0  0  0  0  0
   -2.9520   -4.6564    0.0000 C   0  0  0  0  0  0  0  0  0  0  0  0
   -2.6401   -3.1891    0.0000 C   0  0  0  0  0  0  0  0  0  0  0  0
   -1.2135   -2.7256    0.0000 N   0  0  0  0  0  0  0  0  0  0  0  0
   -0.0000   -3.6073    0.0000 C   0  0  0  0  0  0  0  0  0  0  0  0
    1.2135   -2.7256    0.0000 N   0  0  0  0  0  0  0  0  0  0  0  0
    0.7500   -1.2990    0.0000 C   0  0  0  0  0  0  0  0  0  0  0  0
    1.5000    0.0000    0.0000 C   0  0  0  0  0  0  0  0  0  0  0  0
    0.7500    1.2990    0.0000 C   0  0  0  0  0  0  0  0  0  0  0  0
    1.5000    2.5981    0.0000 N   0  0  0  0  0  0  0  0  0  0  0  0
    0.8899    3.9684    0.0000 C   0  0  0  0  0  0  0  0  0  0  0  0
    2.0046    4.9721    0.0000 C   0  0  0  0  0  0  0  0  0  0  0  0
    3.3037    4.2221    0.0000 C   0  0  0  0  0  0  0  0  0  0  0  0
    2.9918    2.7549    0.0000 C   0  0  0  0  0  0  0  0  0  0  0  0
    3.9955    1.6402    0.0000 C   0  0  0  0  0  0  0  0  0  0  0  0
    3.5320    0.2136    0.0000 O   0  0  0  0  0  0  0  0  0  0  0  0
    5.4627    1.9520    0.0000 O   0  0  0  0  0  0  0  0  0  0  0  0
   -0.7500    1.2990    0.0000 C   0  0  0  0  0  0  0  0  0  0  0  0
   -1.5000    0.0000    0.0000 N   0  0  0  0  0  0  0  0  0  0  0  0
   -0.7500   -1.2990    0.0000 C   0  0  0  0  0  0  0  0  0  0  0  0
   -4.3786   -5.1199    0.0000 C   0  0  0  0  0  0  0  0  0  0  0  0
   -4.6904   -6.5871    0.0000 C   0  0  0  0  0  0  0  0  0  0  0  0
   -6.1170   -7.0506    0.0000 O   0  0  0  0  0  0  0  0  0  0  0  0
   -7.2317   -6.0469    0.0000 C   0  0  0  0  0  0  0  0  0  0  0  0
   -4.5113  -11.9925    0.0000 C   0  0  0  0  0  0  0  0  0  0  0  0
   -4.8232  -13.4597    0.0000 N   0  0  0  0  0  0  0  0  0  0  0  0
  1  2  1  0
  2  3  1  0
  3  4  2  0
  4  5  1  0
  5  6  2  0
  6  7  1  0
  7  8  1  0
  8  9  1  0
  9 10  2  0
 10 11  1  0
 11 12  2  0
 12 13  1  0
 13 14  1  0
 14 15  1  0
 15 16  2  0
 16 17  1  0
 17 18  2  0
 18 19  1  0
 19 20  1  0
 20 21  1  0
 21 22  1  0
 22 23  1  0
 23 24  1  0
 24 25  1  1
 25 26  2  0
 25 27  1  0
 19 28  2  0
 28 29  1  0
 29 30  2  0
 12 31  1  0
 31 32  2  0
 32 33  1  0
 33 34  1  0
  6 35  1  0
 35 36  2  0
 36  3  1  0
 32  9  1  0
 30 14  1  0
 30 17  1  0
 24 20  1  0
M  END
>  <Compound_ID>  (241) 
CHEMBL3673461

>  <Molecule Name>  (241) 
nan

>  <Molecular Weight>  (241) 
489.53

>  <AlogP>  (241) 
3.52

>  <Smiles>  (241) 
COc1ccc(COc2ccc(Cn3cnc4cc(N5CCC[C@H]5C(=O)O)cnc43)cc2OC)cn1

>  <Standard Type>  (241) 
IC50

>  <Standard Relation>  (241) 
'='

>  <Standard Units>  (241) 
nM

>  <Standard Value>  (241) 
8.0

>  <Assay ChEMBL ID>  (241) 
CHEMBL3887112

>  <Assay Description>  (241) 
Inhibition Assay: Reagents and consumables were purchased from Sigma Aldrich, Carna Biosciences, or Caliper Life Sciences. All assay reaction conditions for IC50 determinations were within the linear range with respect to time and enzyme concentration. In a 384 well polypropylene plate, TrkA (0.4 nM, Carna 08-186) was pre-incubated in a 100 mM Hepes-NaOH pH 7.5 buffer containing 0.01% Triton X-100, 10 mM MgCl2, 0.1% BSA, 1 mM DTT, 10 uM sodium orthovanadate and 10 uM beta-glycerophosphate and compound with a concentration of 2.5% DMSO for 15 minutes at room temperature. The reaction was initiated with an equal volume of peptide substrate (Caliper Life Sciences catalog no. 760430) and ATP in the aforementioned buffer. The final concentrations in the reaction were 200 pM TrkA, 1.5 uM peptide substrate and 55 uM ATP (ATP Km). The reaction was incubated at room temperature for 180 minutes and terminated with a buffer containing excess EDTA (100 mM Hepes-NaOH pH 7.5, 0.02% Brij.

>  <BAO Format ID>  (241) 
BAO_0000357

>  <BAO Label>  (241) 
single protein format

>  <Assay Organism>  (241) 
None

>  <Target ChEMBL ID>  (241) 
CHEMBL2815

>  <Target Name>  (241) 
Nerve growth factor receptor Trk-A

>  <Target Organism>  (241) 
Homo sapiens

>  <Target Type>  (241) 
SINGLE PROTEIN

>  <Document ChEMBL ID>  (241) 
CHEMBL3638818

>  <Source Description>  (241) 
BindingDB Database

>  <Document Journal>  (241) 
nan

>  <Document Year>  (241) 
2015.0

>  <Active>  (241) 
1.0

>  <bits>  (241) 
<rdkit.DataStructs.cDataStructs.ExplicitBitVect object at 0x00000159F6034900>

>  <Group>  (241) 
G2

$$$$

     RDKit          2D

 37 41  0  0  0  0  0  0  0  0999 V2000
   -5.0487    4.2236    0.0000 C   0  0  0  0  0  0  0  0  0  0  0  0
   -5.3605    2.7564    0.0000 C   0  0  0  0  0  0  0  0  0  0  0  0
   -6.7871    2.2929    0.0000 C   0  0  0  0  0  0  0  0  0  0  0  0
   -7.0990    0.8256    0.0000 O   0  0  0  0  0  0  0  0  0  0  0  0
   -5.9843   -0.1781    0.0000 C   0  0  0  0  0  0  0  0  0  0  0  0
   -6.2961   -1.6453    0.0000 C   0  0  0  0  0  0  0  0  0  0  0  0
   -5.1814   -2.6490    0.0000 C   0  0  0  0  0  0  0  0  0  0  0  0
   -3.7548   -2.1855    0.0000 C   0  0  0  0  0  0  0  0  0  0  0  0
   -2.6401   -3.1891    0.0000 C   0  0  0  0  0  0  0  0  0  0  0  0
   -1.2135   -2.7256    0.0000 N   0  0  0  0  0  0  0  0  0  0  0  0
   -0.0000   -3.6073    0.0000 C   0  0  0  0  0  0  0  0  0  0  0  0
    0.0000   -5.1073    0.0000 N   0  0  0  0  0  0  0  0  0  0  0  0
    1.2135   -2.7256    0.0000 N   0  0  0  0  0  0  0  0  0  0  0  0
    0.7500   -1.2990    0.0000 C   0  0  0  0  0  0  0  0  0  0  0  0
    1.5000    0.0000    0.0000 C   0  0  0  0  0  0  0  0  0  0  0  0
    0.7500    1.2990    0.0000 C   0  0  0  0  0  0  0  0  0  0  0  0
    1.5000    2.5981    0.0000 C   0  0  0  0  0  0  0  0  0  0  0  0
    0.8899    3.9684    0.0000 C   0  0  0  0  0  0  0  0  0  0  0  0
    2.0046    4.9721    0.0000 N   0  0  0  0  0  0  0  0  0  0  0  0
    3.3037    4.2221    0.0000 N   0  0  0  0  0  0  0  0  0  0  0  0
    4.6740    4.8322    0.0000 C   0  0  0  0  0  0  0  0  0  0  0  0
    2.9918    2.7549    0.0000 C   0  0  0  0  0  0  0  0  0  0  0  0
   -0.7500    1.2990    0.0000 C   0  0  0  0  0  0  0  0  0  0  0  0
   -1.5000    0.0000    0.0000 N   0  0  0  0  0  0  0  0  0  0  0  0
   -0.7500   -1.2990    0.0000 C   0  0  0  0  0  0  0  0  0  0  0  0
   -3.4430   -0.7182    0.0000 C   0  0  0  0  0  0  0  0  0  0  0  0
   -4.5577    0.2855    0.0000 C   0  0  0  0  0  0  0  0  0  0  0  0
   -4.2458    1.7527    0.0000 O   0  0  0  0  0  0  0  0  0  0  0  0
   -2.8192    2.2162    0.0000 C   0  0  0  0  0  0  0  0  0  0  0  0
   -7.9018    3.2966    0.0000 C   0  0  0  0  0  0  0  0  0  0  0  0
   -9.3284    2.8330    0.0000 C   0  0  0  0  0  0  0  0  0  0  0  0
  -10.4431    3.8367    0.0000 C   0  0  0  0  0  0  0  0  0  0  0  0
  -10.1313    5.3039    0.0000 C   0  0  0  0  0  0  0  0  0  0  0  0
  -11.2460    6.3076    0.0000 O   0  0  0  0  0  0  0  0  0  0  0  0
  -10.9341    7.7749    0.0000 C   0  0  0  0  0  0  0  0  0  0  0  0
   -8.7047    5.7675    0.0000 N   0  0  0  0  0  0  0  0  0  0  0  0
   -7.5900    4.7638    0.0000 C   0  0  0  0  0  0  0  0  0  0  0  0
  1  2  1  0
  2  3  1  0
  3  4  1  0
  4  5  1  0
  5  6  2  0
  6  7  1  0
  7  8  2  0
  8  9  1  0
  9 10  1  0
 10 11  1  0
 11 12  1  0
 11 13  2  0
 13 14  1  0
 14 15  2  0
 15 16  1  0
 16 17  1  0
 17 18  1  0
 18 19  2  0
 19 20  1  0
 20 21  1  0
 20 22  1  0
 16 23  2  0
 23 24  1  0
 24 25  2  0
  8 26  1  0
 26 27  2  0
 27 28  1  0
 28 29  1  0
  3 30  1  0
 30 31  2  0
 31 32  1  0
 32 33  2  0
 33 34  1  0
 34 35  1  0
 33 36  1  0
 36 37  2  0
 27  5  1  0
 37 30  1  0
 25 10  1  0
 25 14  1  0
 22 17  2  0
M  END
>  <Compound_ID>  (242) 
CHEMBL3673475

>  <Molecule Name>  (242) 
nan

>  <Molecular Weight>  (242) 
499.58

>  <AlogP>  (242) 
4.4

>  <Smiles>  (242) 
CCC(Oc1ccc(Cn2c(N)nc3cc(-c4cnn(C)c4)cnc32)cc1OC)c1ccc(OC)nc1

>  <Standard Type>  (242) 
IC50

>  <Standard Relation>  (242) 
'='

>  <Standard Units>  (242) 
nM

>  <Standard Value>  (242) 
32.0

>  <Assay ChEMBL ID>  (242) 
CHEMBL3887112

>  <Assay Description>  (242) 
Inhibition Assay: Reagents and consumables were purchased from Sigma Aldrich, Carna Biosciences, or Caliper Life Sciences. All assay reaction conditions for IC50 determinations were within the linear range with respect to time and enzyme concentration. In a 384 well polypropylene plate, TrkA (0.4 nM, Carna 08-186) was pre-incubated in a 100 mM Hepes-NaOH pH 7.5 buffer containing 0.01% Triton X-100, 10 mM MgCl2, 0.1% BSA, 1 mM DTT, 10 uM sodium orthovanadate and 10 uM beta-glycerophosphate and compound with a concentration of 2.5% DMSO for 15 minutes at room temperature. The reaction was initiated with an equal volume of peptide substrate (Caliper Life Sciences catalog no. 760430) and ATP in the aforementioned buffer. The final concentrations in the reaction were 200 pM TrkA, 1.5 uM peptide substrate and 55 uM ATP (ATP Km). The reaction was incubated at room temperature for 180 minutes and terminated with a buffer containing excess EDTA (100 mM Hepes-NaOH pH 7.5, 0.02% Brij.

>  <BAO Format ID>  (242) 
BAO_0000357

>  <BAO Label>  (242) 
single protein format

>  <Assay Organism>  (242) 
None

>  <Target ChEMBL ID>  (242) 
CHEMBL2815

>  <Target Name>  (242) 
Nerve growth factor receptor Trk-A

>  <Target Organism>  (242) 
Homo sapiens

>  <Target Type>  (242) 
SINGLE PROTEIN

>  <Document ChEMBL ID>  (242) 
CHEMBL3638818

>  <Source Description>  (242) 
BindingDB Database

>  <Document Journal>  (242) 
nan

>  <Document Year>  (242) 
2015.0

>  <Active>  (242) 
1.0

>  <bits>  (242) 
<rdkit.DataStructs.cDataStructs.ExplicitBitVect object at 0x00000159F6036A40>

>  <Group>  (242) 
G2

$$$$

     RDKit          2D

 36 40  0  0  0  0  0  0  0  0999 V2000
   -3.1036   -1.7626    0.0000 C   0  0  0  0  0  0  0  0  0  0  0  0
   -2.6401   -3.1891    0.0000 C   0  0  0  0  0  0  0  0  0  0  0  0
   -1.2135   -2.7256    0.0000 N   0  0  0  0  0  0  0  0  0  0  0  0
   -0.0000   -3.6073    0.0000 C   0  0  0  0  0  0  0  0  0  0  0  0
    1.2135   -2.7256    0.0000 C   0  0  0  0  0  0  0  0  0  0  0  0
    2.6401   -3.1891    0.0000 C   0  0  0  0  0  0  0  0  0  0  0  0
    3.7548   -2.1855    0.0000 O   0  0  0  0  0  0  0  0  0  0  0  0
    2.9520   -4.6564    0.0000 C   0  0  0  0  0  0  0  0  0  0  0  0
    1.8373   -5.6601    0.0000 C   0  0  0  0  0  0  0  0  0  0  0  0
    2.1491   -7.1273    0.0000 N   0  0  0  0  0  0  0  0  0  0  0  0
    3.5757   -7.5908    0.0000 C   0  0  0  0  0  0  0  0  0  0  0  0
    4.6904   -6.5871    0.0000 C   0  0  0  0  0  0  0  0  0  0  0  0
    6.1170   -7.0506    0.0000 N   0  0  0  0  0  0  0  0  0  0  0  0
    6.4289   -8.5179    0.0000 C   0  0  0  0  0  0  0  0  0  0  0  0
    5.3142   -9.5216    0.0000 O   0  0  0  0  0  0  0  0  0  0  0  0
    7.8555   -8.9814    0.0000 C   0  0  0  0  0  0  0  0  0  0  0  0
    8.1673  -10.4486    0.0000 C   0  0  0  0  0  0  0  0  0  0  0  0
    7.0526  -11.4523    0.0000 C   0  0  0  0  0  0  0  0  0  0  0  0
    7.3645  -12.9195    0.0000 C   0  0  0  0  0  0  0  0  0  0  0  0
    8.7911  -13.3831    0.0000 C   0  0  0  0  0  0  0  0  0  0  0  0
    9.9058  -12.3794    0.0000 C   0  0  0  0  0  0  0  0  0  0  0  0
   11.3324  -12.8429    0.0000 C   0  0  0  0  0  0  0  0  0  0  0  0
   12.7590  -13.3064    0.0000 F   0  0  0  0  0  0  0  0  0  0  0  0
   10.8688  -14.2695    0.0000 F   0  0  0  0  0  0  0  0  0  0  0  0
   11.7959  -11.4163    0.0000 F   0  0  0  0  0  0  0  0  0  0  0  0
    9.5939  -10.9121    0.0000 C   0  0  0  0  0  0  0  0  0  0  0  0
    4.3786   -5.1199    0.0000 C   0  0  0  0  0  0  0  0  0  0  0  0
    0.7500   -1.2990    0.0000 C   0  0  0  0  0  0  0  0  0  0  0  0
    1.5000    0.0000    0.0000 C   0  0  0  0  0  0  0  0  0  0  0  0
    0.7500    1.2990    0.0000 N   0  0  0  0  0  0  0  0  0  0  0  0
   -0.7500    1.2990    0.0000 C   0  0  0  0  0  0  0  0  0  0  0  0
   -1.5000    0.0000    0.0000 N   0  0  0  0  0  0  0  0  0  0  0  0
   -0.7500   -1.2990    0.0000 C   0  0  0  0  0  0  0  0  0  0  0  0
   -2.1766   -4.6157    0.0000 C   0  0  0  0  0  0  0  0  0  0  0  0
   -3.6032   -5.0793    0.0000 O   0  0  0  0  0  0  0  0  0  0  0  0
   -4.0667   -3.6527    0.0000 C   0  0  0  0  0  0  0  0  0  0  0  0
  1  2  1  0
  2  3  1  0
  3  4  1  0
  4  5  2  0
  5  6  1  0
  6  7  2  0
  6  8  1  0
  8  9  2  0
  9 10  1  0
 10 11  2  0
 11 12  1  0
 12 13  1  0
 13 14  1  0
 14 15  2  0
 14 16  1  0
 16 17  1  0
 17 18  2  0
 18 19  1  0
 19 20  2  0
 20 21  1  0
 21 22  1  0
 22 23  1  0
 22 24  1  0
 22 25  1  0
 21 26  2  0
 12 27  2  0
  5 28  1  0
 28 29  2  0
 29 30  1  0
 30 31  2  0
 31 32  1  0
 32 33  2  0
  2 34  1  0
 34 35  1  0
 35 36  1  0
 36  2  1  0
 33  3  1  0
 27  8  1  0
 33 28  1  0
 26 17  1  0
M  END
>  <Compound_ID>  (243) 
CHEMBL3671444

>  <Molecule Name>  (243) 
nan

>  <Molecular Weight>  (243) 
495.46

>  <AlogP>  (243) 
4.0

>  <Smiles>  (243) 
CC1(n2cc(C(=O)c3cncc(NC(=O)Cc4cccc(C(F)(F)F)c4)c3)c3cncnc32)COC1

>  <Standard Type>  (243) 
IC50

>  <Standard Relation>  (243) 
'='

>  <Standard Units>  (243) 
nM

>  <Standard Value>  (243) 
9.5

>  <Assay ChEMBL ID>  (243) 
CHEMBL3887033

>  <Assay Description>  (243) 
Enzyme Assay: Isolated TRK Enzyme assays use the HTRF KinEASE-TK kit (Cisbio Cat# 62TK0PEJ) with recombinant His-tagged cytoplasmic domains of each TRK receptor sourced from Invitrogen (see table below). This activity-assay measures the phosphorylation of tyrosine residues within a substrate from the HTRF kit which has been validated by Cisbio for a variety of tyrosine kinases including the TRK receptors. Assay details: Target:TRKA; Invitrogen Cat# PV3144; Amino acids:aa 441-796; FAC enzyme:4nM; FAC ATP:40uM; Assay Reaction Time:35min.

>  <BAO Format ID>  (243) 
BAO_0000357

>  <BAO Label>  (243) 
single protein format

>  <Assay Organism>  (243) 
None

>  <Target ChEMBL ID>  (243) 
CHEMBL2815

>  <Target Name>  (243) 
Nerve growth factor receptor Trk-A

>  <Target Organism>  (243) 
Homo sapiens

>  <Target Type>  (243) 
SINGLE PROTEIN

>  <Document ChEMBL ID>  (243) 
CHEMBL3639348

>  <Source Description>  (243) 
BindingDB Database

>  <Document Journal>  (243) 
nan

>  <Document Year>  (243) 
2014.0

>  <Active>  (243) 
1.0

>  <bits>  (243) 
<rdkit.DataStructs.cDataStructs.ExplicitBitVect object at 0x00000159F6035000>

>  <Group>  (243) 
G2

$$$$

     RDKit          2D

 31 35  0  0  0  0  0  0  0  0999 V2000
   -1.8373   -5.6601    0.0000 O   0  0  0  0  0  0  0  0  0  0  0  0
   -2.9520   -4.6564    0.0000 C   0  0  0  0  0  0  0  0  0  0  0  0
   -2.6401   -3.1891    0.0000 N   0  0  0  0  0  0  0  0  0  0  0  0
   -1.2135   -2.7256    0.0000 C   0  0  0  0  0  0  0  0  0  0  0  0
   -0.0000   -3.6073    0.0000 C   0  0  0  0  0  0  0  0  0  0  0  0
    1.2135   -2.7256    0.0000 N   0  0  0  0  0  0  0  0  0  0  0  0
    0.7500   -1.2990    0.0000 N   0  0  0  0  0  0  0  0  0  0  0  0
    1.5000    0.0000    0.0000 C   0  0  0  0  0  0  0  0  0  0  0  0
    0.7500    1.2990    0.0000 C   0  0  0  0  0  0  0  0  0  0  0  0
   -0.7500    1.2990    0.0000 C   0  0  0  0  0  0  0  0  0  0  0  0
   -1.5000    2.5981    0.0000 N   0  0  0  0  0  0  0  0  0  0  0  0
   -2.9918    2.7549    0.0000 C   0  0  0  0  0  0  0  0  0  0  0  0
   -3.3037    4.2221    0.0000 C   0  0  0  0  0  0  0  0  0  0  0  0
   -2.0046    4.9721    0.0000 C   0  0  0  0  0  0  0  0  0  0  0  0
   -0.8899    3.9684    0.0000 C   0  0  0  0  0  0  0  0  0  0  0  0
    0.5773    4.2803    0.0000 C   0  0  0  0  0  0  0  0  0  0  0  0
    1.5810    3.1655    0.0000 C   0  0  0  0  0  0  0  0  0  0  0  0
    3.0482    3.4774    0.0000 C   0  0  0  0  0  0  0  0  0  0  0  0
    4.0519    2.3627    0.0000 F   0  0  0  0  0  0  0  0  0  0  0  0
    3.5118    4.9040    0.0000 C   0  0  0  0  0  0  0  0  0  0  0  0
    2.5081    6.0187    0.0000 C   0  0  0  0  0  0  0  0  0  0  0  0
    1.0409    5.7068    0.0000 C   0  0  0  0  0  0  0  0  0  0  0  0
    0.0372    6.8216    0.0000 F   0  0  0  0  0  0  0  0  0  0  0  0
   -1.5000    0.0000    0.0000 N   0  0  0  0  0  0  0  0  0  0  0  0
   -0.7500   -1.2990    0.0000 C   0  0  0  0  0  0  0  0  0  0  0  0
   -4.3786   -5.1199    0.0000 N   0  0  0  0  0  0  0  0  0  0  0  0
   -5.4933   -4.1162    0.0000 C   0  0  0  0  0  0  0  0  0  0  0  0
   -6.9199   -4.5797    0.0000 C   0  0  0  0  0  0  0  0  0  0  0  0
   -7.2317   -6.0469    0.0000 O   0  0  0  0  0  0  0  0  0  0  0  0
   -6.1170   -7.0506    0.0000 C   0  0  0  0  0  0  0  0  0  0  0  0
   -4.6904   -6.5871    0.0000 C   0  0  0  0  0  0  0  0  0  0  0  0
  1  2  2  0
  2  3  1  0
  3  4  1  0
  4  5  1  0
  5  6  2  0
  6  7  1  0
  7  8  1  0
  8  9  2  0
  9 10  1  0
 10 11  1  0
 11 12  1  0
 12 13  1  0
 13 14  1  0
 14 15  1  0
 15 16  1  6
 16 17  2  0
 17 18  1  0
 18 19  1  0
 18 20  2  0
 20 21  1  0
 21 22  2  0
 22 23  1  0
 10 24  2  0
 24 25  1  0
  2 26  1  0
 26 27  1  0
 27 28  1  0
 28 29  1  0
 29 30  1  0
 30 31  1  0
 25  4  2  0
 31 26  1  0
 25  7  1  0
 15 11  1  0
 22 16  1  0
M  END
>  <Compound_ID>  (244) 
CHEMBL4110736

>  <Molecule Name>  (244) 
nan

>  <Molecular Weight>  (244) 
428.44

>  <AlogP>  (244) 
3.21

>  <Smiles>  (244) 
O=C(Nc1cnn2ccc(N3CCC[C@@H]3c3cc(F)ccc3F)nc12)N1CCOCC1

>  <Standard Type>  (244) 
IC50

>  <Standard Relation>  (244) 
'='

>  <Standard Units>  (244) 
nM

>  <Standard Value>  (244) 
32.2

>  <Assay ChEMBL ID>  (244) 
CHEMBL3887076

>  <Assay Description>  (244) 
ELISA Assay: An enzyme-linked immunosorbant assay (ELISA) was used to assess TrkA kinase activity in the presence of inhibitors. Immulon 4HBX 384-well microtiter plates (Thermo part #8755) were coated with a 0.025 mg/mL solution of poly (Glu, Ala, Tyr; 6:3:1; Sigma P3899). Various concentrations of test compound, 2.5 nM TrkA (Invitrogen Corp., histidine-tagged recombinant human TrkA, cytoplasmic domain), and 500 uM ATP were incubated for 25 minutes at ambient temperature in the coated plates while shaking. The assay buffer consisted of 25 mM MOPS pH 7.5, 0.005% (v/v) Triton X-100 and 5 mM MgCl2. The reaction mixture was removed from the plate by washing with PBS containing 0.1% (v/v) Tween 20. The phosphorylated reaction product was detected using 0.2 ug/mL of a phosphotyrosine specific monoclonal antibody (clone PY20) conjugated to horseradish peroxidase in conjunction with the TMB Peroxidase Substrate System (KPL).

>  <BAO Format ID>  (244) 
BAO_0000357

>  <BAO Label>  (244) 
single protein format

>  <Assay Organism>  (244) 
None

>  <Target ChEMBL ID>  (244) 
CHEMBL2815

>  <Target Name>  (244) 
Nerve growth factor receptor Trk-A

>  <Target Organism>  (244) 
Homo sapiens

>  <Target Type>  (244) 
SINGLE PROTEIN

>  <Document ChEMBL ID>  (244) 
CHEMBL3886151

>  <Source Description>  (244) 
BindingDB Database

>  <Document Journal>  (244) 
nan

>  <Document Year>  (244) 
2014.0

>  <Active>  (244) 
1.0

>  <bits>  (244) 
<rdkit.DataStructs.cDataStructs.ExplicitBitVect object at 0x00000159F6035620>

>  <Group>  (244) 
G2

$$$$

     RDKit          2D

 31 35  0  0  0  0  0  0  0  0999 V2000
   -1.8373   -5.6601    0.0000 O   0  0  0  0  0  0  0  0  0  0  0  0
   -2.9520   -4.6564    0.0000 C   0  0  0  0  0  0  0  0  0  0  0  0
   -2.6401   -3.1891    0.0000 N   0  0  0  0  0  0  0  0  0  0  0  0
   -1.2135   -2.7256    0.0000 C   0  0  0  0  0  0  0  0  0  0  0  0
   -0.0000   -3.6073    0.0000 C   0  0  0  0  0  0  0  0  0  0  0  0
    1.2135   -2.7256    0.0000 N   0  0  0  0  0  0  0  0  0  0  0  0
    0.7500   -1.2990    0.0000 N   0  0  0  0  0  0  0  0  0  0  0  0
    1.5000    0.0000    0.0000 C   0  0  0  0  0  0  0  0  0  0  0  0
    0.7500    1.2990    0.0000 C   0  0  0  0  0  0  0  0  0  0  0  0
   -0.7500    1.2990    0.0000 C   0  0  0  0  0  0  0  0  0  0  0  0
   -1.5000    2.5981    0.0000 N   0  0  0  0  0  0  0  0  0  0  0  0
   -2.9918    2.7549    0.0000 C   0  0  0  0  0  0  0  0  0  0  0  0
   -3.3037    4.2221    0.0000 C   0  0  0  0  0  0  0  0  0  0  0  0
   -2.0046    4.9721    0.0000 C   0  0  0  0  0  0  0  0  0  0  0  0
   -0.8899    3.9684    0.0000 C   0  0  0  0  0  0  0  0  0  0  0  0
    0.5773    4.2803    0.0000 C   0  0  0  0  0  0  0  0  0  0  0  0
    1.5810    3.1655    0.0000 C   0  0  0  0  0  0  0  0  0  0  0  0
    3.0482    3.4774    0.0000 C   0  0  0  0  0  0  0  0  0  0  0  0
    4.0519    2.3627    0.0000 F   0  0  0  0  0  0  0  0  0  0  0  0
    3.5118    4.9040    0.0000 C   0  0  0  0  0  0  0  0  0  0  0  0
    2.5081    6.0187    0.0000 C   0  0  0  0  0  0  0  0  0  0  0  0
    2.9716    7.4453    0.0000 Cl  0  0  0  0  0  0  0  0  0  0  0  0
    1.0409    5.7068    0.0000 C   0  0  0  0  0  0  0  0  0  0  0  0
   -1.5000    0.0000    0.0000 N   0  0  0  0  0  0  0  0  0  0  0  0
   -0.7500   -1.2990    0.0000 C   0  0  0  0  0  0  0  0  0  0  0  0
   -4.3786   -5.1199    0.0000 N   0  0  0  0  0  0  0  0  0  0  0  0
   -4.8421   -6.5465    0.0000 C   0  0  0  0  0  0  0  0  0  0  0  0
   -6.3421   -6.5465    0.0000 C   0  0  0  0  0  0  0  0  0  0  0  0
   -6.8056   -5.1199    0.0000 C   0  0  0  0  0  0  0  0  0  0  0  0
   -8.2322   -4.6564    0.0000 O   0  0  0  0  0  0  0  0  0  0  0  0
   -5.5921   -4.2382    0.0000 C   0  0  0  0  0  0  0  0  0  0  0  0
  1  2  2  0
  2  3  1  0
  3  4  1  0
  4  5  1  0
  5  6  2  0
  6  7  1  0
  7  8  1  0
  8  9  2  0
  9 10  1  0
 10 11  1  0
 11 12  1  0
 12 13  1  0
 13 14  1  0
 14 15  1  0
 15 16  1  6
 16 17  2  0
 17 18  1  0
 18 19  1  0
 18 20  2  0
 20 21  1  0
 21 22  1  0
 21 23  2  0
 10 24  2  0
 24 25  1  0
  2 26  1  0
 26 27  1  0
 27 28  1  0
 28 29  1  0
 29 30  1  6
 29 31  1  0
 25  4  2  0
 31 26  1  0
 25  7  1  0
 15 11  1  0
 23 16  1  0
M  END
>  <Compound_ID>  (245) 
CHEMBL3940310

>  <Molecule Name>  (245) 
nan

>  <Molecular Weight>  (245) 
444.9

>  <AlogP>  (245) 
3.46

>  <Smiles>  (245) 
O=C(Nc1cnn2ccc(N3CCC[C@@H]3c3cc(F)cc(Cl)c3)nc12)N1CC[C@H](O)C1

>  <Standard Type>  (245) 
IC50

>  <Standard Relation>  (245) 
'='

>  <Standard Units>  (245) 
nM

>  <Standard Value>  (245) 
20.2

>  <Assay ChEMBL ID>  (245) 
CHEMBL3887076

>  <Assay Description>  (245) 
ELISA Assay: An enzyme-linked immunosorbant assay (ELISA) was used to assess TrkA kinase activity in the presence of inhibitors. Immulon 4HBX 384-well microtiter plates (Thermo part #8755) were coated with a 0.025 mg/mL solution of poly (Glu, Ala, Tyr; 6:3:1; Sigma P3899). Various concentrations of test compound, 2.5 nM TrkA (Invitrogen Corp., histidine-tagged recombinant human TrkA, cytoplasmic domain), and 500 uM ATP were incubated for 25 minutes at ambient temperature in the coated plates while shaking. The assay buffer consisted of 25 mM MOPS pH 7.5, 0.005% (v/v) Triton X-100 and 5 mM MgCl2. The reaction mixture was removed from the plate by washing with PBS containing 0.1% (v/v) Tween 20. The phosphorylated reaction product was detected using 0.2 ug/mL of a phosphotyrosine specific monoclonal antibody (clone PY20) conjugated to horseradish peroxidase in conjunction with the TMB Peroxidase Substrate System (KPL).

>  <BAO Format ID>  (245) 
BAO_0000357

>  <BAO Label>  (245) 
single protein format

>  <Assay Organism>  (245) 
None

>  <Target ChEMBL ID>  (245) 
CHEMBL2815

>  <Target Name>  (245) 
Nerve growth factor receptor Trk-A

>  <Target Organism>  (245) 
Homo sapiens

>  <Target Type>  (245) 
SINGLE PROTEIN

>  <Document ChEMBL ID>  (245) 
CHEMBL3886151

>  <Source Description>  (245) 
BindingDB Database

>  <Document Journal>  (245) 
nan

>  <Document Year>  (245) 
2014.0

>  <Active>  (245) 
1.0

>  <bits>  (245) 
<rdkit.DataStructs.cDataStructs.ExplicitBitVect object at 0x00000159F6036F10>

>  <Group>  (245) 
G2

$$$$

     RDKit          2D

 34 38  0  0  0  0  0  0  0  0999 V2000
   -9.5972   -8.8167    0.0000 C   0  0  0  0  0  0  0  0  0  0  0  0
   -8.7155   -7.6032    0.0000 C   0  0  0  0  0  0  0  0  0  0  0  0
   -9.3257   -6.2329    0.0000 C   0  0  0  0  0  0  0  0  0  0  0  0
   -7.2238   -7.7600    0.0000 N   0  0  0  0  0  0  0  0  0  0  0  0
   -6.3421   -6.5465    0.0000 C   0  0  0  0  0  0  0  0  0  0  0  0
   -4.8421   -6.5465    0.0000 N   0  0  0  0  0  0  0  0  0  0  0  0
   -4.3786   -5.1199    0.0000 C   0  0  0  0  0  0  0  0  0  0  0  0
   -2.9520   -4.6564    0.0000 C   0  0  0  0  0  0  0  0  0  0  0  0
   -1.8373   -5.6601    0.0000 O   0  0  0  0  0  0  0  0  0  0  0  0
   -2.6401   -3.1891    0.0000 N   0  0  0  0  0  0  0  0  0  0  0  0
   -1.2135   -2.7256    0.0000 C   0  0  0  0  0  0  0  0  0  0  0  0
   -0.0000   -3.6073    0.0000 C   0  0  0  0  0  0  0  0  0  0  0  0
    1.2135   -2.7256    0.0000 N   0  0  0  0  0  0  0  0  0  0  0  0
    0.7500   -1.2990    0.0000 N   0  0  0  0  0  0  0  0  0  0  0  0
    1.5000    0.0000    0.0000 C   0  0  0  0  0  0  0  0  0  0  0  0
    0.7500    1.2990    0.0000 C   0  0  0  0  0  0  0  0  0  0  0  0
   -0.7500    1.2990    0.0000 C   0  0  0  0  0  0  0  0  0  0  0  0
   -1.5000    2.5981    0.0000 N   0  0  0  0  0  0  0  0  0  0  0  0
   -2.9918    2.7549    0.0000 C   0  0  0  0  0  0  0  0  0  0  0  0
   -3.3037    4.2221    0.0000 C   0  0  0  0  0  0  0  0  0  0  0  0
   -2.0046    4.9721    0.0000 C   0  0  0  0  0  0  0  0  0  0  0  0
   -0.8899    3.9684    0.0000 C   0  0  0  0  0  0  0  0  0  0  0  0
    0.5773    4.2803    0.0000 C   0  0  0  0  0  0  0  0  0  0  0  0
    1.5810    3.1655    0.0000 C   0  0  0  0  0  0  0  0  0  0  0  0
    3.0482    3.4774    0.0000 C   0  0  0  0  0  0  0  0  0  0  0  0
    4.0519    2.3627    0.0000 F   0  0  0  0  0  0  0  0  0  0  0  0
    3.5118    4.9040    0.0000 C   0  0  0  0  0  0  0  0  0  0  0  0
    2.5081    6.0187    0.0000 C   0  0  0  0  0  0  0  0  0  0  0  0
    1.0409    5.7068    0.0000 C   0  0  0  0  0  0  0  0  0  0  0  0
    0.0372    6.8216    0.0000 F   0  0  0  0  0  0  0  0  0  0  0  0
   -1.5000    0.0000    0.0000 N   0  0  0  0  0  0  0  0  0  0  0  0
   -0.7500   -1.2990    0.0000 C   0  0  0  0  0  0  0  0  0  0  0  0
   -5.5921   -4.2382    0.0000 C   0  0  0  0  0  0  0  0  0  0  0  0
   -6.8056   -5.1199    0.0000 S   0  0  0  0  0  0  0  0  0  0  0  0
  1  2  1  0
  2  3  1  0
  2  4  1  0
  4  5  1  0
  5  6  2  0
  6  7  1  0
  7  8  1  0
  8  9  2  0
  8 10  1  0
 10 11  1  0
 11 12  1  0
 12 13  2  0
 13 14  1  0
 14 15  1  0
 15 16  2  0
 16 17  1  0
 17 18  1  0
 18 19  1  0
 19 20  1  0
 20 21  1  0
 21 22  1  0
 22 23  1  6
 23 24  2  0
 24 25  1  0
 25 26  1  0
 25 27  2  0
 27 28  1  0
 28 29  2  0
 29 30  1  0
 17 31  2  0
 31 32  1  0
  7 33  2  0
 33 34  1  0
 34  5  1  0
 32 11  2  0
 32 14  1  0
 22 18  1  0
 29 23  1  0
M  END
>  <Compound_ID>  (246) 
CHEMBL4115170

>  <Molecule Name>  (246) 
nan

>  <Molecular Weight>  (246) 
483.55

>  <AlogP>  (246) 
4.88

>  <Smiles>  (246) 
CC(C)Nc1nc(C(=O)Nc2cnn3ccc(N4CCC[C@@H]4c4cc(F)ccc4F)nc23)cs1

>  <Standard Type>  (246) 
IC50

>  <Standard Relation>  (246) 
'='

>  <Standard Units>  (246) 
nM

>  <Standard Value>  (246) 
3.1

>  <Assay ChEMBL ID>  (246) 
CHEMBL3887076

>  <Assay Description>  (246) 
ELISA Assay: An enzyme-linked immunosorbant assay (ELISA) was used to assess TrkA kinase activity in the presence of inhibitors. Immulon 4HBX 384-well microtiter plates (Thermo part #8755) were coated with a 0.025 mg/mL solution of poly (Glu, Ala, Tyr; 6:3:1; Sigma P3899). Various concentrations of test compound, 2.5 nM TrkA (Invitrogen Corp., histidine-tagged recombinant human TrkA, cytoplasmic domain), and 500 uM ATP were incubated for 25 minutes at ambient temperature in the coated plates while shaking. The assay buffer consisted of 25 mM MOPS pH 7.5, 0.005% (v/v) Triton X-100 and 5 mM MgCl2. The reaction mixture was removed from the plate by washing with PBS containing 0.1% (v/v) Tween 20. The phosphorylated reaction product was detected using 0.2 ug/mL of a phosphotyrosine specific monoclonal antibody (clone PY20) conjugated to horseradish peroxidase in conjunction with the TMB Peroxidase Substrate System (KPL).

>  <BAO Format ID>  (246) 
BAO_0000357

>  <BAO Label>  (246) 
single protein format

>  <Assay Organism>  (246) 
None

>  <Target ChEMBL ID>  (246) 
CHEMBL2815

>  <Target Name>  (246) 
Nerve growth factor receptor Trk-A

>  <Target Organism>  (246) 
Homo sapiens

>  <Target Type>  (246) 
SINGLE PROTEIN

>  <Document ChEMBL ID>  (246) 
CHEMBL3886151

>  <Source Description>  (246) 
BindingDB Database

>  <Document Journal>  (246) 
nan

>  <Document Year>  (246) 
2014.0

>  <Active>  (246) 
1.0

>  <bits>  (246) 
<rdkit.DataStructs.cDataStructs.ExplicitBitVect object at 0x00000159F60343C0>

>  <Group>  (246) 
G2

$$$$

     RDKit          2D

 28 32  0  0  0  0  0  0  0  0999 V2000
   -3.7548   -2.1855    0.0000 O   0  0  0  0  0  0  0  0  0  0  0  0
   -2.6401   -3.1891    0.0000 C   0  0  0  0  0  0  0  0  0  0  0  0
   -2.9520   -4.6564    0.0000 N   0  0  0  0  0  0  0  0  0  0  0  0
   -4.3786   -5.1199    0.0000 C   0  0  0  0  0  0  0  0  0  0  0  0
   -5.3823   -6.2346    0.0000 C   0  0  0  0  0  0  0  0  0  0  0  0
   -5.8458   -4.8080    0.0000 C   0  0  0  0  0  0  0  0  0  0  0  0
   -1.2135   -2.7256    0.0000 C   0  0  0  0  0  0  0  0  0  0  0  0
   -0.0000   -3.6073    0.0000 C   0  0  0  0  0  0  0  0  0  0  0  0
    1.2135   -2.7256    0.0000 N   0  0  0  0  0  0  0  0  0  0  0  0
    0.7500   -1.2990    0.0000 N   0  0  0  0  0  0  0  0  0  0  0  0
    1.5000    0.0000    0.0000 C   0  0  0  0  0  0  0  0  0  0  0  0
    0.7500    1.2990    0.0000 C   0  0  0  0  0  0  0  0  0  0  0  0
   -0.7500    1.2990    0.0000 C   0  0  0  0  0  0  0  0  0  0  0  0
   -1.5000    2.5981    0.0000 N   0  0  0  0  0  0  0  0  0  0  0  0
   -2.9918    2.7549    0.0000 C   0  0  0  0  0  0  0  0  0  0  0  0
   -3.3037    4.2221    0.0000 C   0  0  0  0  0  0  0  0  0  0  0  0
   -4.6740    4.8322    0.0000 O   0  0  0  0  0  0  0  0  0  0  0  0
   -2.0046    4.9721    0.0000 C   0  0  0  0  0  0  0  0  0  0  0  0
   -0.8899    3.9684    0.0000 C   0  0  0  0  0  0  0  0  0  0  0  0
    0.5773    4.2803    0.0000 C   0  0  0  0  0  0  0  0  0  0  0  0
    1.5810    3.1655    0.0000 C   0  0  0  0  0  0  0  0  0  0  0  0
    3.0482    3.4774    0.0000 C   0  0  0  0  0  0  0  0  0  0  0  0
    3.5118    4.9040    0.0000 C   0  0  0  0  0  0  0  0  0  0  0  0
    2.5081    6.0187    0.0000 C   0  0  0  0  0  0  0  0  0  0  0  0
    2.9716    7.4453    0.0000 F   0  0  0  0  0  0  0  0  0  0  0  0
    1.0409    5.7068    0.0000 C   0  0  0  0  0  0  0  0  0  0  0  0
   -1.5000    0.0000    0.0000 N   0  0  0  0  0  0  0  0  0  0  0  0
   -0.7500   -1.2990    0.0000 C   0  0  0  0  0  0  0  0  0  0  0  0
  1  2  2  0
  2  3  1  0
  3  4  1  0
  4  5  1  0
  5  6  1  0
  2  7  1  0
  7  8  1  0
  8  9  2  0
  9 10  1  0
 10 11  1  0
 11 12  2  0
 12 13  1  0
 13 14  1  0
 14 15  1  0
 15 16  1  0
 16 17  1  6
 16 18  1  0
 18 19  1  0
 19 20  1  6
 20 21  2  0
 21 22  1  0
 22 23  2  0
 23 24  1  0
 24 25  1  0
 24 26  2  0
 13 27  2  0
 27 28  1  0
  6  4  1  0
 28  7  2  0
 28 10  1  0
 19 14  1  0
 26 20  1  0
M  END
>  <Compound_ID>  (247) 
CHEMBL3675919

>  <Molecule Name>  (247) 
nan

>  <Molecular Weight>  (247) 
381.41

>  <AlogP>  (247) 
2.07

>  <Smiles>  (247) 
O=C(NC1CC1)c1cnn2ccc(N3C[C@H](O)C[C@@H]3c3cccc(F)c3)nc12

>  <Standard Type>  (247) 
IC50

>  <Standard Relation>  (247) 
'='

>  <Standard Units>  (247) 
nM

>  <Standard Value>  (247) 
28.9

>  <Assay ChEMBL ID>  (247) 
CHEMBL3887070

>  <Assay Description>  (247) 
ELISA Assay: An enzyme-linked immunosorbant assay (ELISA) was used to assess TrkA kinase activity in the presence of inhibitors. Immulon 4HBX 384-well microtiter plates (Thermo part #8755) were coated with a 0.025 mg/mL solution of poly (Glu, Ala, Tyr; 6:3:1; Sigma P3899). Various concentrations of test compound, 2.5 nM TrkA (Invitrogen Corp., histidine-tagged recombinant human TrkA, cytoplasmic domain), and 500 uM ATP were incubated for 25 minutes at ambient temperature in the coated plates while shaking The assay buffer consisted of 25 mM MOPS pH 7.5, 0.005% (v/v) Triton X-100 and 5 mM MgCl2. The reaction mixture was removed from the plate by washing with PBS containing 0.1% (v/v) Tween 20. The phosphorylated reaction product was detected using 0.2 ug/mL of a phosphotyrosine specific monoclonal antibody (clone PY20) conjugated to horseradish peroxidase in conjunction with the TMB Peroxidase Substrate System (KPL).

>  <BAO Format ID>  (247) 
BAO_0000357

>  <BAO Label>  (247) 
single protein format

>  <Assay Organism>  (247) 
None

>  <Target ChEMBL ID>  (247) 
CHEMBL2815

>  <Target Name>  (247) 
Nerve growth factor receptor Trk-A

>  <Target Organism>  (247) 
Homo sapiens

>  <Target Type>  (247) 
SINGLE PROTEIN

>  <Document ChEMBL ID>  (247) 
CHEMBL3638907

>  <Source Description>  (247) 
BindingDB Database

>  <Document Journal>  (247) 
nan

>  <Document Year>  (247) 
2014.0

>  <Active>  (247) 
1.0

>  <bits>  (247) 
<rdkit.DataStructs.cDataStructs.ExplicitBitVect object at 0x00000159F60360A0>

>  <Group>  (247) 
G2

$$$$

     RDKit          2D

 23 26  0  0  0  0  0  0  0  0999 V2000
    6.0000   -5.1962    0.0000 C   0  0  0  0  0  0  0  0  0  0  0  0
    5.2500   -3.8971    0.0000 O   0  0  0  0  0  0  0  0  0  0  0  0
    3.7500   -3.8971    0.0000 C   0  0  0  0  0  0  0  0  0  0  0  0
    3.0000   -5.1962    0.0000 C   0  0  0  0  0  0  0  0  0  0  0  0
    1.5000   -5.1962    0.0000 C   0  0  0  0  0  0  0  0  0  0  0  0
    0.7500   -3.8971    0.0000 C   0  0  0  0  0  0  0  0  0  0  0  0
    1.5000   -2.5981    0.0000 C   0  0  0  0  0  0  0  0  0  0  0  0
    0.7500   -1.2990    0.0000 C   0  0  0  0  0  0  0  0  0  0  0  0
    1.5000    0.0000    0.0000 C   0  0  0  0  0  0  0  0  0  0  0  0
    0.7500    1.2990    0.0000 N   0  0  0  0  0  0  0  0  0  0  0  0
   -0.7500    1.2990    0.0000 C   0  0  0  0  0  0  0  0  0  0  0  0
   -1.7537    2.4138    0.0000 N   0  0  0  0  0  0  0  0  0  0  0  0
   -3.1240    1.8037    0.0000 C   0  0  0  0  0  0  0  0  0  0  0  0
   -2.9672    0.3119    0.0000 C   0  0  0  0  0  0  0  0  0  0  0  0
   -4.0819   -0.6918    0.0000 C   0  0  0  0  0  0  0  0  0  0  0  0
   -5.5085   -0.2283    0.0000 C   0  0  0  0  0  0  0  0  0  0  0  0
   -6.6232   -1.2320    0.0000 C   0  0  0  0  0  0  0  0  0  0  0  0
   -6.3114   -2.6992    0.0000 N   0  0  0  0  0  0  0  0  0  0  0  0
   -4.8848   -3.1627    0.0000 C   0  0  0  0  0  0  0  0  0  0  0  0
   -3.7701   -2.1590    0.0000 C   0  0  0  0  0  0  0  0  0  0  0  0
   -1.5000    0.0000    0.0000 C   0  0  0  0  0  0  0  0  0  0  0  0
   -0.7500   -1.2990    0.0000 C   0  0  0  0  0  0  0  0  0  0  0  0
    3.0000   -2.5981    0.0000 C   0  0  0  0  0  0  0  0  0  0  0  0
  1  2  1  0
  2  3  1  0
  3  4  2  0
  4  5  1  0
  5  6  2  0
  6  7  1  0
  7  8  1  0
  8  9  2  0
  9 10  1  0
 10 11  2  0
 11 12  1  0
 12 13  1  0
 13 14  2  0
 14 15  1  0
 15 16  2  0
 16 17  1  0
 17 18  2  0
 18 19  1  0
 19 20  2  0
 14 21  1  0
 21 22  2  0
  7 23  2  0
 23  3  1  0
 22  8  1  0
 21 11  1  0
 20 15  1  0
M  END
>  <Compound_ID>  (248) 
CHEMBL2152272

>  <Molecule Name>  (248) 
nan

>  <Molecular Weight>  (248) 
301.35

>  <AlogP>  (248) 
4.3

>  <Smiles>  (248) 
COc1cccc(-c2cnc3[nH]cc(-c4ccncc4)c3c2)c1

>  <Standard Type>  (248) 
IC50

>  <Standard Relation>  (248) 
'='

>  <Standard Units>  (248) 
nM

>  <Standard Value>  (248) 
22.7

>  <Assay ChEMBL ID>  (248) 
CHEMBL2157053

>  <Assay Description>  (248) 
Inhibition of TRKA assessed as [gamma33P]ATP incorporation into substrate

>  <BAO Format ID>  (248) 
BAO_0000357

>  <BAO Label>  (248) 
single protein format

>  <Assay Organism>  (248) 
None

>  <Target ChEMBL ID>  (248) 
CHEMBL2815

>  <Target Name>  (248) 
Nerve growth factor receptor Trk-A

>  <Target Organism>  (248) 
Homo sapiens

>  <Target Type>  (248) 
SINGLE PROTEIN

>  <Document ChEMBL ID>  (248) 
CHEMBL2150859

>  <Source Description>  (248) 
Scientific Literature

>  <Document Journal>  (248) 
J Med Chem

>  <Document Year>  (248) 
2012.0

>  <Active>  (248) 
1.0

>  <bits>  (248) 
<rdkit.DataStructs.cDataStructs.ExplicitBitVect object at 0x00000159F6037060>

>  <Group>  (248) 
G2

$$$$

     RDKit          2D

 30 33  0  0  0  0  0  0  0  0999 V2000
    7.9336   -1.1492    0.0000 C   0  0  0  0  0  0  0  0  0  0  0  0
    6.4664   -0.8373    0.0000 N   0  0  0  0  0  0  0  0  0  0  0  0
    6.0029    0.5893    0.0000 C   0  0  0  0  0  0  0  0  0  0  0  0
    4.5356    0.9012    0.0000 C   0  0  0  0  0  0  0  0  0  0  0  0
    4.0721    2.3277    0.0000 F   0  0  0  0  0  0  0  0  0  0  0  0
    3.5320   -0.2136    0.0000 C   0  0  0  0  0  0  0  0  0  0  0  0
    3.9955   -1.6402    0.0000 C   0  0  0  0  0  0  0  0  0  0  0  0
    2.9918   -2.7549    0.0000 C   0  0  0  0  0  0  0  0  0  0  0  0
    3.3037   -4.2221    0.0000 C   0  0  0  0  0  0  0  0  0  0  0  0
    2.0046   -4.9721    0.0000 C   0  0  0  0  0  0  0  0  0  0  0  0
    0.8899   -3.9684    0.0000 C   0  0  0  0  0  0  0  0  0  0  0  0
    1.5000   -2.5981    0.0000 N   0  0  0  0  0  0  0  0  0  0  0  0
    0.7500   -1.2990    0.0000 C   0  0  0  0  0  0  0  0  0  0  0  0
    1.5000    0.0000    0.0000 C   0  0  0  0  0  0  0  0  0  0  0  0
    0.7500    1.2990    0.0000 C   0  0  0  0  0  0  0  0  0  0  0  0
   -0.7500    1.2990    0.0000 N   0  0  0  0  0  0  0  0  0  0  0  0
   -1.7537    2.4138    0.0000 N   0  0  0  0  0  0  0  0  0  0  0  0
   -3.1240    1.8037    0.0000 C   0  0  0  0  0  0  0  0  0  0  0  0
   -2.9672    0.3119    0.0000 C   0  0  0  0  0  0  0  0  0  0  0  0
   -4.0819   -0.6918    0.0000 C   0  0  0  0  0  0  0  0  0  0  0  0
   -3.7701   -2.1590    0.0000 O   0  0  0  0  0  0  0  0  0  0  0  0
   -5.5085   -0.2283    0.0000 N   0  0  0  0  0  0  0  0  0  0  0  0
   -6.6232   -1.2320    0.0000 C   0  0  0  0  0  0  0  0  0  0  0  0
   -7.6269   -0.1173    0.0000 C   0  0  0  0  0  0  0  0  0  0  0  0
   -5.6195   -2.3467    0.0000 C   0  0  0  0  0  0  0  0  0  0  0  0
   -7.7380   -2.2357    0.0000 C   0  0  0  0  0  0  0  0  0  0  0  0
   -1.5000    0.0000    0.0000 C   0  0  0  0  0  0  0  0  0  0  0  0
   -0.7500   -1.2990    0.0000 N   0  0  0  0  0  0  0  0  0  0  0  0
    5.4627   -1.9520    0.0000 C   0  0  0  0  0  0  0  0  0  0  0  0
    5.9262   -3.3786    0.0000 O   0  0  0  0  0  0  0  0  0  0  0  0
  1  2  1  0
  2  3  1  0
  3  4  2  0
  4  5  1  0
  4  6  1  0
  6  7  2  0
  8  7  1  1
  8  9  1  0
  9 10  1  0
 10 11  1  0
 11 12  1  0
 12 13  1  0
 13 14  1  0
 14 15  2  0
 15 16  1  0
 16 17  1  0
 17 18  2  0
 18 19  1  0
 19 20  1  0
 20 21  2  0
 20 22  1  0
 22 23  1  0
 23 24  1  0
 23 25  1  0
 23 26  1  0
 19 27  2  0
 27 28  1  0
  7 29  1  0
 29 30  2  0
 29  2  1  0
 12  8  1  0
 28 13  2  0
 27 16  1  0
M  END
>  <Compound_ID>  (249) 
CHEMBL3676088

>  <Molecule Name>  (249) 
nan

>  <Molecular Weight>  (249) 
412.47

>  <AlogP>  (249) 
2.44

>  <Smiles>  (249) 
Cn1cc(F)cc([C@H]2CCCN2c2ccn3ncc(C(=O)NC(C)(C)C)c3n2)c1=O

>  <Standard Type>  (249) 
IC50

>  <Standard Relation>  (249) 
'='

>  <Standard Units>  (249) 
nM

>  <Standard Value>  (249) 
10.5

>  <Assay ChEMBL ID>  (249) 
CHEMBL3887070

>  <Assay Description>  (249) 
ELISA Assay: An enzyme-linked immunosorbant assay (ELISA) was used to assess TrkA kinase activity in the presence of inhibitors. Immulon 4HBX 384-well microtiter plates (Thermo part #8755) were coated with a 0.025 mg/mL solution of poly (Glu, Ala, Tyr; 6:3:1; Sigma P3899). Various concentrations of test compound, 2.5 nM TrkA (Invitrogen Corp., histidine-tagged recombinant human TrkA, cytoplasmic domain), and 500 uM ATP were incubated for 25 minutes at ambient temperature in the coated plates while shaking The assay buffer consisted of 25 mM MOPS pH 7.5, 0.005% (v/v) Triton X-100 and 5 mM MgCl2. The reaction mixture was removed from the plate by washing with PBS containing 0.1% (v/v) Tween 20. The phosphorylated reaction product was detected using 0.2 ug/mL of a phosphotyrosine specific monoclonal antibody (clone PY20) conjugated to horseradish peroxidase in conjunction with the TMB Peroxidase Substrate System (KPL).

>  <BAO Format ID>  (249) 
BAO_0000357

>  <BAO Label>  (249) 
single protein format

>  <Assay Organism>  (249) 
None

>  <Target ChEMBL ID>  (249) 
CHEMBL2815

>  <Target Name>  (249) 
Nerve growth factor receptor Trk-A

>  <Target Organism>  (249) 
Homo sapiens

>  <Target Type>  (249) 
SINGLE PROTEIN

>  <Document ChEMBL ID>  (249) 
CHEMBL3638907

>  <Source Description>  (249) 
BindingDB Database

>  <Document Journal>  (249) 
nan

>  <Document Year>  (249) 
2014.0

>  <Active>  (249) 
1.0

>  <bits>  (249) 
<rdkit.DataStructs.cDataStructs.ExplicitBitVect object at 0x00000159F6037610>

>  <Group>  (249) 
G2

$$$$

     RDKit          2D

 30 34  0  0  0  0  0  0  0  0999 V2000
    7.9336   -1.1492    0.0000 C   0  0  0  0  0  0  0  0  0  0  0  0
    6.4664   -0.8373    0.0000 N   0  0  0  0  0  0  0  0  0  0  0  0
    6.0029    0.5893    0.0000 C   0  0  0  0  0  0  0  0  0  0  0  0
    4.5356    0.9012    0.0000 C   0  0  0  0  0  0  0  0  0  0  0  0
    4.0721    2.3277    0.0000 F   0  0  0  0  0  0  0  0  0  0  0  0
    3.5320   -0.2136    0.0000 C   0  0  0  0  0  0  0  0  0  0  0  0
    3.9955   -1.6402    0.0000 C   0  0  0  0  0  0  0  0  0  0  0  0
    2.9918   -2.7549    0.0000 C   0  0  0  0  0  0  0  0  0  0  0  0
    3.3037   -4.2221    0.0000 C   0  0  0  0  0  0  0  0  0  0  0  0
    2.0046   -4.9721    0.0000 C   0  0  0  0  0  0  0  0  0  0  0  0
    0.8899   -3.9684    0.0000 C   0  0  0  0  0  0  0  0  0  0  0  0
    1.5000   -2.5981    0.0000 N   0  0  0  0  0  0  0  0  0  0  0  0
    0.7500   -1.2990    0.0000 C   0  0  0  0  0  0  0  0  0  0  0  0
    1.5000    0.0000    0.0000 C   0  0  0  0  0  0  0  0  0  0  0  0
    0.7500    1.2990    0.0000 C   0  0  0  0  0  0  0  0  0  0  0  0
   -0.7500    1.2990    0.0000 N   0  0  0  0  0  0  0  0  0  0  0  0
   -1.7537    2.4138    0.0000 N   0  0  0  0  0  0  0  0  0  0  0  0
   -3.1240    1.8037    0.0000 C   0  0  0  0  0  0  0  0  0  0  0  0
   -2.9672    0.3119    0.0000 C   0  0  0  0  0  0  0  0  0  0  0  0
   -4.0819   -0.6918    0.0000 C   0  0  0  0  0  0  0  0  0  0  0  0
   -3.7701   -2.1590    0.0000 O   0  0  0  0  0  0  0  0  0  0  0  0
   -5.5085   -0.2283    0.0000 N   0  0  0  0  0  0  0  0  0  0  0  0
   -6.6232   -1.2320    0.0000 C   0  0  0  0  0  0  0  0  0  0  0  0
   -5.8284   -2.5041    0.0000 C   0  0  0  0  0  0  0  0  0  0  0  0
   -8.0140   -1.7939    0.0000 C   0  0  0  0  0  0  0  0  0  0  0  0
   -7.8053   -0.3085    0.0000 C   0  0  0  0  0  0  0  0  0  0  0  0
   -1.5000    0.0000    0.0000 C   0  0  0  0  0  0  0  0  0  0  0  0
   -0.7500   -1.2990    0.0000 N   0  0  0  0  0  0  0  0  0  0  0  0
    5.4627   -1.9520    0.0000 C   0  0  0  0  0  0  0  0  0  0  0  0
    5.9262   -3.3786    0.0000 O   0  0  0  0  0  0  0  0  0  0  0  0
  1  2  1  0
  2  3  1  0
  3  4  2  0
  4  5  1  0
  4  6  1  0
  6  7  2  0
  8  7  1  1
  8  9  1  0
  9 10  1  0
 10 11  1  0
 11 12  1  0
 12 13  1  0
 13 14  1  0
 14 15  2  0
 15 16  1  0
 16 17  1  0
 17 18  2  0
 18 19  1  0
 19 20  1  0
 20 21  2  0
 20 22  1  0
 22 23  1  0
 23 24  1  0
 23 25  1  0
 25 26  1  0
 19 27  2  0
 27 28  1  0
  7 29  1  0
 29 30  2  0
 29  2  1  0
 12  8  1  0
 28 13  2  0
 27 16  1  0
 26 23  1  0
M  END
>  <Compound_ID>  (250) 
CHEMBL3676099

>  <Molecule Name>  (250) 
nan

>  <Molecular Weight>  (250) 
410.45

>  <AlogP>  (250) 
2.19

>  <Smiles>  (250) 
Cn1cc(F)cc([C@H]2CCCN2c2ccn3ncc(C(=O)NC4(C)CC4)c3n2)c1=O

>  <Standard Type>  (250) 
IC50

>  <Standard Relation>  (250) 
'='

>  <Standard Units>  (250) 
nM

>  <Standard Value>  (250) 
2.1

>  <Assay ChEMBL ID>  (250) 
CHEMBL3887070

>  <Assay Description>  (250) 
ELISA Assay: An enzyme-linked immunosorbant assay (ELISA) was used to assess TrkA kinase activity in the presence of inhibitors. Immulon 4HBX 384-well microtiter plates (Thermo part #8755) were coated with a 0.025 mg/mL solution of poly (Glu, Ala, Tyr; 6:3:1; Sigma P3899). Various concentrations of test compound, 2.5 nM TrkA (Invitrogen Corp., histidine-tagged recombinant human TrkA, cytoplasmic domain), and 500 uM ATP were incubated for 25 minutes at ambient temperature in the coated plates while shaking The assay buffer consisted of 25 mM MOPS pH 7.5, 0.005% (v/v) Triton X-100 and 5 mM MgCl2. The reaction mixture was removed from the plate by washing with PBS containing 0.1% (v/v) Tween 20. The phosphorylated reaction product was detected using 0.2 ug/mL of a phosphotyrosine specific monoclonal antibody (clone PY20) conjugated to horseradish peroxidase in conjunction with the TMB Peroxidase Substrate System (KPL).

>  <BAO Format ID>  (250) 
BAO_0000357

>  <BAO Label>  (250) 
single protein format

>  <Assay Organism>  (250) 
None

>  <Target ChEMBL ID>  (250) 
CHEMBL2815

>  <Target Name>  (250) 
Nerve growth factor receptor Trk-A

>  <Target Organism>  (250) 
Homo sapiens

>  <Target Type>  (250) 
SINGLE PROTEIN

>  <Document ChEMBL ID>  (250) 
CHEMBL3638907

>  <Source Description>  (250) 
BindingDB Database

>  <Document Journal>  (250) 
nan

>  <Document Year>  (250) 
2014.0

>  <Active>  (250) 
1.0

>  <bits>  (250) 
<rdkit.DataStructs.cDataStructs.ExplicitBitVect object at 0x00000159F6034F90>

>  <Group>  (250) 
G2

$$$$

     RDKit          2D

 36 41  0  0  0  0  0  0  0  0999 V2000
   13.4580   -4.2579    0.0000 C   0  0  0  0  0  0  0  0  0  0  0  0
   11.9663   -4.1011    0.0000 C   0  0  0  0  0  0  0  0  0  0  0  0
   11.9663   -5.6011    0.0000 C   0  0  0  0  0  0  0  0  0  0  0  0
   12.2781   -2.6339    0.0000 O   0  0  0  0  0  0  0  0  0  0  0  0
   10.9791   -1.8839    0.0000 C   0  0  0  0  0  0  0  0  0  0  0  0
    9.8644   -2.8876    0.0000 C   0  0  0  0  0  0  0  0  0  0  0  0
    8.3971   -2.5758    0.0000 C   0  0  0  0  0  0  0  0  0  0  0  0
    7.9336   -1.1492    0.0000 O   0  0  0  0  0  0  0  0  0  0  0  0
    6.4664   -0.8373    0.0000 C   0  0  0  0  0  0  0  0  0  0  0  0
    6.0029    0.5893    0.0000 C   0  0  0  0  0  0  0  0  0  0  0  0
    4.5356    0.9012    0.0000 C   0  0  0  0  0  0  0  0  0  0  0  0
    4.0721    2.3277    0.0000 F   0  0  0  0  0  0  0  0  0  0  0  0
    3.5320   -0.2136    0.0000 C   0  0  0  0  0  0  0  0  0  0  0  0
    3.9955   -1.6402    0.0000 C   0  0  0  0  0  0  0  0  0  0  0  0
    2.9918   -2.7549    0.0000 C   0  0  0  0  0  0  0  0  0  0  0  0
    3.3037   -4.2221    0.0000 C   0  0  0  0  0  0  0  0  0  0  0  0
    2.0046   -4.9721    0.0000 C   0  0  0  0  0  0  0  0  0  0  0  0
    0.8899   -3.9684    0.0000 C   0  0  0  0  0  0  0  0  0  0  0  0
    1.5000   -2.5981    0.0000 N   0  0  0  0  0  0  0  0  0  0  0  0
    0.7500   -1.2990    0.0000 C   0  0  0  0  0  0  0  0  0  0  0  0
    1.5000    0.0000    0.0000 C   0  0  0  0  0  0  0  0  0  0  0  0
    0.7500    1.2990    0.0000 C   0  0  0  0  0  0  0  0  0  0  0  0
   -0.7500    1.2990    0.0000 N   0  0  0  0  0  0  0  0  0  0  0  0
   -1.7537    2.4138    0.0000 N   0  0  0  0  0  0  0  0  0  0  0  0
   -3.1240    1.8037    0.0000 C   0  0  0  0  0  0  0  0  0  0  0  0
   -2.9672    0.3119    0.0000 C   0  0  0  0  0  0  0  0  0  0  0  0
   -4.0819   -0.6918    0.0000 C   0  0  0  0  0  0  0  0  0  0  0  0
   -3.7701   -2.1590    0.0000 O   0  0  0  0  0  0  0  0  0  0  0  0
   -5.5085   -0.2283    0.0000 N   0  0  0  0  0  0  0  0  0  0  0  0
   -6.6232   -1.2320    0.0000 C   0  0  0  0  0  0  0  0  0  0  0  0
   -7.0868   -2.6586    0.0000 C   0  0  0  0  0  0  0  0  0  0  0  0
   -8.0905   -1.5439    0.0000 C   0  0  0  0  0  0  0  0  0  0  0  0
   -1.5000    0.0000    0.0000 C   0  0  0  0  0  0  0  0  0  0  0  0
   -0.7500   -1.2990    0.0000 N   0  0  0  0  0  0  0  0  0  0  0  0
    5.4627   -1.9520    0.0000 C   0  0  0  0  0  0  0  0  0  0  0  0
   10.4745   -4.2579    0.0000 O   0  0  0  0  0  0  0  0  0  0  0  0
  1  2  1  0
  2  3  1  0
  2  4  1  0
  4  5  1  0
  5  6  1  0
  6  7  1  0
  7  8  1  0
  8  9  1  0
  9 10  2  0
 10 11  1  0
 11 12  1  0
 11 13  2  0
 13 14  1  0
 15 14  1  1
 15 16  1  0
 16 17  1  0
 17 18  1  0
 18 19  1  0
 19 20  1  0
 20 21  1  0
 21 22  2  0
 22 23  1  0
 23 24  1  0
 24 25  2  0
 25 26  1  0
 26 27  1  0
 27 28  2  0
 27 29  1  0
 29 30  1  0
 30 31  1  0
 31 32  1  0
 26 33  2  0
 33 34  1  0
 14 35  2  0
  6 36  1  0
 36  2  1  0
 35  9  1  0
 19 15  1  0
 34 20  2  0
 33 23  1  0
 32 30  1  0
M  END
>  <Compound_ID>  (251) 
CHEMBL3676072

>  <Molecule Name>  (251) 
nan

>  <Molecular Weight>  (251) 
495.56

>  <AlogP>  (251) 
3.63

>  <Smiles>  (251) 
CC1(C)OCC(COc2cc(F)cc([C@H]3CCCN3c3ccn4ncc(C(=O)NC5CC5)c4n3)c2)O1

>  <Standard Type>  (251) 
IC50

>  <Standard Relation>  (251) 
'='

>  <Standard Units>  (251) 
nM

>  <Standard Value>  (251) 
3.9

>  <Assay ChEMBL ID>  (251) 
CHEMBL3887070

>  <Assay Description>  (251) 
ELISA Assay: An enzyme-linked immunosorbant assay (ELISA) was used to assess TrkA kinase activity in the presence of inhibitors. Immulon 4HBX 384-well microtiter plates (Thermo part #8755) were coated with a 0.025 mg/mL solution of poly (Glu, Ala, Tyr; 6:3:1; Sigma P3899). Various concentrations of test compound, 2.5 nM TrkA (Invitrogen Corp., histidine-tagged recombinant human TrkA, cytoplasmic domain), and 500 uM ATP were incubated for 25 minutes at ambient temperature in the coated plates while shaking The assay buffer consisted of 25 mM MOPS pH 7.5, 0.005% (v/v) Triton X-100 and 5 mM MgCl2. The reaction mixture was removed from the plate by washing with PBS containing 0.1% (v/v) Tween 20. The phosphorylated reaction product was detected using 0.2 ug/mL of a phosphotyrosine specific monoclonal antibody (clone PY20) conjugated to horseradish peroxidase in conjunction with the TMB Peroxidase Substrate System (KPL).

>  <BAO Format ID>  (251) 
BAO_0000357

>  <BAO Label>  (251) 
single protein format

>  <Assay Organism>  (251) 
None

>  <Target ChEMBL ID>  (251) 
CHEMBL2815

>  <Target Name>  (251) 
Nerve growth factor receptor Trk-A

>  <Target Organism>  (251) 
Homo sapiens

>  <Target Type>  (251) 
SINGLE PROTEIN

>  <Document ChEMBL ID>  (251) 
CHEMBL3638907

>  <Source Description>  (251) 
BindingDB Database

>  <Document Journal>  (251) 
nan

>  <Document Year>  (251) 
2014.0

>  <Active>  (251) 
1.0

>  <bits>  (251) 
<rdkit.DataStructs.cDataStructs.ExplicitBitVect object at 0x00000159F6036110>

>  <Group>  (251) 
G2

$$$$

     RDKit          2D

 33 37  0  0  0  0  0  0  0  0999 V2000
   -3.7548   -2.1855    0.0000 O   0  0  0  0  0  0  0  0  0  0  0  0
   -2.6401   -3.1891    0.0000 C   0  0  0  0  0  0  0  0  0  0  0  0
   -2.9520   -4.6564    0.0000 N   0  0  0  0  0  0  0  0  0  0  0  0
   -4.3786   -5.1199    0.0000 C   0  0  0  0  0  0  0  0  0  0  0  0
   -5.3823   -6.2346    0.0000 C   0  0  0  0  0  0  0  0  0  0  0  0
   -5.8458   -4.8080    0.0000 C   0  0  0  0  0  0  0  0  0  0  0  0
   -1.2135   -2.7256    0.0000 C   0  0  0  0  0  0  0  0  0  0  0  0
   -0.0000   -3.6073    0.0000 C   0  0  0  0  0  0  0  0  0  0  0  0
    1.2135   -2.7256    0.0000 N   0  0  0  0  0  0  0  0  0  0  0  0
    0.7500   -1.2990    0.0000 N   0  0  0  0  0  0  0  0  0  0  0  0
    1.5000    0.0000    0.0000 C   0  0  0  0  0  0  0  0  0  0  0  0
    0.7500    1.2990    0.0000 C   0  0  0  0  0  0  0  0  0  0  0  0
   -0.7500    1.2990    0.0000 C   0  0  0  0  0  0  0  0  0  0  0  0
   -1.5000    2.5981    0.0000 N   0  0  0  0  0  0  0  0  0  0  0  0
   -2.9918    2.7549    0.0000 C   0  0  0  0  0  0  0  0  0  0  0  0
   -3.3037    4.2221    0.0000 C   0  0  0  0  0  0  0  0  0  0  0  0
   -2.0046    4.9721    0.0000 C   0  0  0  0  0  0  0  0  0  0  0  0
   -0.8899    3.9684    0.0000 C   0  0  0  0  0  0  0  0  0  0  0  0
    0.5773    4.2803    0.0000 C   0  0  0  0  0  0  0  0  0  0  0  0
    1.5810    3.1655    0.0000 C   0  0  0  0  0  0  0  0  0  0  0  0
    3.0482    3.4774    0.0000 C   0  0  0  0  0  0  0  0  0  0  0  0
    4.0519    2.3627    0.0000 F   0  0  0  0  0  0  0  0  0  0  0  0
    3.5118    4.9040    0.0000 C   0  0  0  0  0  0  0  0  0  0  0  0
    2.5081    6.0187    0.0000 C   0  0  0  0  0  0  0  0  0  0  0  0
    2.9716    7.4453    0.0000 O   0  0  0  0  0  0  0  0  0  0  0  0
    4.4388    7.7572    0.0000 C   0  0  0  0  0  0  0  0  0  0  0  0
    4.9023    9.1838    0.0000 C   0  0  0  0  0  0  0  0  0  0  0  0
    3.8986   10.2985    0.0000 O   0  0  0  0  0  0  0  0  0  0  0  0
    6.3696    9.4956    0.0000 C   0  0  0  0  0  0  0  0  0  0  0  0
    6.8331   10.9222    0.0000 O   0  0  0  0  0  0  0  0  0  0  0  0
    1.0409    5.7068    0.0000 C   0  0  0  0  0  0  0  0  0  0  0  0
   -1.5000    0.0000    0.0000 N   0  0  0  0  0  0  0  0  0  0  0  0
   -0.7500   -1.2990    0.0000 C   0  0  0  0  0  0  0  0  0  0  0  0
  1  2  2  0
  2  3  1  0
  3  4  1  0
  4  5  1  0
  5  6  1  0
  2  7  1  0
  7  8  1  0
  8  9  2  0
  9 10  1  0
 10 11  1  0
 11 12  2  0
 12 13  1  0
 13 14  1  0
 14 15  1  0
 15 16  1  0
 16 17  1  0
 17 18  1  0
 18 19  1  6
 19 20  2  0
 20 21  1  0
 21 22  1  0
 21 23  2  0
 23 24  1  0
 24 25  1  0
 25 26  1  0
 26 27  1  0
 27 28  1  0
 27 29  1  0
 29 30  1  0
 24 31  2  0
 13 32  2  0
 32 33  1  0
  6  4  1  0
 33  7  2  0
 33 10  1  0
 18 14  1  0
 31 19  1  0
M  END
>  <Compound_ID>  (252) 
CHEMBL3676074

>  <Molecule Name>  (252) 
nan

>  <Molecular Weight>  (252) 
455.49

>  <AlogP>  (252) 
1.83

>  <Smiles>  (252) 
O=C(NC1CC1)c1cnn2ccc(N3CCC[C@@H]3c3cc(F)cc(OCC(O)CO)c3)nc12

>  <Standard Type>  (252) 
IC50

>  <Standard Relation>  (252) 
'='

>  <Standard Units>  (252) 
nM

>  <Standard Value>  (252) 
1.7

>  <Assay ChEMBL ID>  (252) 
CHEMBL3887070

>  <Assay Description>  (252) 
ELISA Assay: An enzyme-linked immunosorbant assay (ELISA) was used to assess TrkA kinase activity in the presence of inhibitors. Immulon 4HBX 384-well microtiter plates (Thermo part #8755) were coated with a 0.025 mg/mL solution of poly (Glu, Ala, Tyr; 6:3:1; Sigma P3899). Various concentrations of test compound, 2.5 nM TrkA (Invitrogen Corp., histidine-tagged recombinant human TrkA, cytoplasmic domain), and 500 uM ATP were incubated for 25 minutes at ambient temperature in the coated plates while shaking The assay buffer consisted of 25 mM MOPS pH 7.5, 0.005% (v/v) Triton X-100 and 5 mM MgCl2. The reaction mixture was removed from the plate by washing with PBS containing 0.1% (v/v) Tween 20. The phosphorylated reaction product was detected using 0.2 ug/mL of a phosphotyrosine specific monoclonal antibody (clone PY20) conjugated to horseradish peroxidase in conjunction with the TMB Peroxidase Substrate System (KPL).

>  <BAO Format ID>  (252) 
BAO_0000357

>  <BAO Label>  (252) 
single protein format

>  <Assay Organism>  (252) 
None

>  <Target ChEMBL ID>  (252) 
CHEMBL2815

>  <Target Name>  (252) 
Nerve growth factor receptor Trk-A

>  <Target Organism>  (252) 
Homo sapiens

>  <Target Type>  (252) 
SINGLE PROTEIN

>  <Document ChEMBL ID>  (252) 
CHEMBL3638907

>  <Source Description>  (252) 
BindingDB Database

>  <Document Journal>  (252) 
nan

>  <Document Year>  (252) 
2014.0

>  <Active>  (252) 
1.0

>  <bits>  (252) 
<rdkit.DataStructs.cDataStructs.ExplicitBitVect object at 0x00000159F60367A0>

>  <Group>  (252) 
G2

$$$$

     RDKit          2D

 35 40  0  0  0  0  0  0  0  0999 V2000
  -14.2319   -1.4920    0.0000 N   0  0  0  0  0  0  0  0  0  0  0  0
  -13.1172   -2.4957    0.0000 C   0  0  0  0  0  0  0  0  0  0  0  0
  -12.0025   -3.4994    0.0000 C   0  0  0  0  0  0  0  0  0  0  0  0
  -10.5759   -3.0359    0.0000 C   0  0  0  0  0  0  0  0  0  0  0  0
   -9.4612   -4.0396    0.0000 C   0  0  0  0  0  0  0  0  0  0  0  0
   -9.7730   -5.5068    0.0000 C   0  0  0  0  0  0  0  0  0  0  0  0
   -8.6583   -6.5105    0.0000 C   0  0  0  0  0  0  0  0  0  0  0  0
   -7.2317   -6.0469    0.0000 C   0  0  0  0  0  0  0  0  0  0  0  0
   -6.9199   -4.5797    0.0000 O   0  0  0  0  0  0  0  0  0  0  0  0
   -6.1170   -7.0506    0.0000 N   0  0  0  0  0  0  0  0  0  0  0  0
   -4.6904   -6.5871    0.0000 C   0  0  0  0  0  0  0  0  0  0  0  0
   -3.5757   -7.5908    0.0000 C   0  0  0  0  0  0  0  0  0  0  0  0
   -2.1491   -7.1273    0.0000 N   0  0  0  0  0  0  0  0  0  0  0  0
   -1.8373   -5.6601    0.0000 C   0  0  0  0  0  0  0  0  0  0  0  0
   -2.9520   -4.6564    0.0000 C   0  0  0  0  0  0  0  0  0  0  0  0
   -2.6401   -3.1891    0.0000 C   0  0  0  0  0  0  0  0  0  0  0  0
   -3.7548   -2.1855    0.0000 O   0  0  0  0  0  0  0  0  0  0  0  0
   -1.2135   -2.7256    0.0000 C   0  0  0  0  0  0  0  0  0  0  0  0
   -0.0000   -3.6073    0.0000 C   0  0  0  0  0  0  0  0  0  0  0  0
    1.2135   -2.7256    0.0000 N   0  0  0  0  0  0  0  0  0  0  0  0
    2.6401   -3.1891    0.0000 C   0  0  0  0  0  0  0  0  0  0  0  0
    3.9766   -2.5082    0.0000 C   0  0  0  0  0  0  0  0  0  0  0  0
    4.6576   -3.8447    0.0000 C   0  0  0  0  0  0  0  0  0  0  0  0
    3.3211   -4.5257    0.0000 C   0  0  0  0  0  0  0  0  0  0  0  0
    3.7537   -3.1942    0.0000 C   0  0  0  0  0  0  0  0  0  0  0  0
    0.7500   -1.2990    0.0000 C   0  0  0  0  0  0  0  0  0  0  0  0
    1.5000    0.0000    0.0000 N   0  0  0  0  0  0  0  0  0  0  0  0
    0.7500    1.2990    0.0000 C   0  0  0  0  0  0  0  0  0  0  0  0
    1.5000    2.5981    0.0000 N   0  0  0  0  0  0  0  0  0  0  0  0
   -0.7500    1.2990    0.0000 N   0  0  0  0  0  0  0  0  0  0  0  0
   -1.5000    0.0000    0.0000 C   0  0  0  0  0  0  0  0  0  0  0  0
   -0.7500   -1.2990    0.0000 C   0  0  0  0  0  0  0  0  0  0  0  0
   -4.3786   -5.1199    0.0000 C   0  0  0  0  0  0  0  0  0  0  0  0
  -11.1996   -5.9703    0.0000 C   0  0  0  0  0  0  0  0  0  0  0  0
  -12.3143   -4.9666    0.0000 C   0  0  0  0  0  0  0  0  0  0  0  0
  1  2  3  0
  2  3  1  0
  3  4  2  0
  4  5  1  0
  5  6  2  0
  6  7  1  0
  7  8  1  0
  8  9  2  0
  8 10  1  0
 10 11  1  0
 11 12  2  0
 12 13  1  0
 13 14  2  0
 14 15  1  0
 15 16  1  0
 16 17  2  0
 16 18  1  0
 18 19  2  0
 19 20  1  0
 20 21  1  0
 21 22  1  0
 22 23  1  0
 23 24  1  0
 23 25  1  0
 20 26  1  0
 26 27  2  0
 27 28  1  0
 28 29  1  0
 28 30  2  0
 30 31  1  0
 31 32  2  0
 15 33  2  0
  6 34  1  0
 34 35  2  0
 35  3  1  0
 33 11  1  0
 32 18  1  0
 24 21  1  0
 32 26  1  0
 25 21  1  0
M  END
>  <Compound_ID>  (253) 
CHEMBL3671471

>  <Molecule Name>  (253) 
nan

>  <Molecular Weight>  (253) 
463.5

>  <AlogP>  (253) 
3.2

>  <Smiles>  (253) 
N#Cc1ccc(CC(=O)Nc2cncc(C(=O)c3cn(C45CC(C4)C5)c4nc(N)ncc34)c2)cc1

>  <Standard Type>  (253) 
IC50

>  <Standard Relation>  (253) 
'='

>  <Standard Units>  (253) 
nM

>  <Standard Value>  (253) 
9.79

>  <Assay ChEMBL ID>  (253) 
CHEMBL3887033

>  <Assay Description>  (253) 
Enzyme Assay: Isolated TRK Enzyme assays use the HTRF KinEASE-TK kit (Cisbio Cat# 62TK0PEJ) with recombinant His-tagged cytoplasmic domains of each TRK receptor sourced from Invitrogen (see table below). This activity-assay measures the phosphorylation of tyrosine residues within a substrate from the HTRF kit which has been validated by Cisbio for a variety of tyrosine kinases including the TRK receptors. Assay details: Target:TRKA; Invitrogen Cat# PV3144; Amino acids:aa 441-796; FAC enzyme:4nM; FAC ATP:40uM; Assay Reaction Time:35min.

>  <BAO Format ID>  (253) 
BAO_0000357

>  <BAO Label>  (253) 
single protein format

>  <Assay Organism>  (253) 
None

>  <Target ChEMBL ID>  (253) 
CHEMBL2815

>  <Target Name>  (253) 
Nerve growth factor receptor Trk-A

>  <Target Organism>  (253) 
Homo sapiens

>  <Target Type>  (253) 
SINGLE PROTEIN

>  <Document ChEMBL ID>  (253) 
CHEMBL3639348

>  <Source Description>  (253) 
BindingDB Database

>  <Document Journal>  (253) 
nan

>  <Document Year>  (253) 
2014.0

>  <Active>  (253) 
1.0

>  <bits>  (253) 
<rdkit.DataStructs.cDataStructs.ExplicitBitVect object at 0x00000159F6034AC0>

>  <Group>  (253) 
G2

$$$$

     RDKit          2D

 34 39  0  0  0  0  0  0  0  0999 V2000
    3.0000    0.0000    0.0000 N   0  0  0  0  0  0  0  0  0  0  0  0
    1.5000    0.0000    0.0000 C   0  0  0  0  0  0  0  0  0  0  0  0
    0.7500   -1.2990    0.0000 N   0  0  0  0  0  0  0  0  0  0  0  0
   -0.7500   -1.2990    0.0000 C   0  0  0  0  0  0  0  0  0  0  0  0
   -1.5000    0.0000    0.0000 C   0  0  0  0  0  0  0  0  0  0  0  0
   -2.9672    0.3119    0.0000 C   0  0  0  0  0  0  0  0  0  0  0  0
   -4.0819   -0.6918    0.0000 C   0  0  0  0  0  0  0  0  0  0  0  0
   -3.7701   -2.1590    0.0000 O   0  0  0  0  0  0  0  0  0  0  0  0
   -5.5085   -0.2283    0.0000 C   0  0  0  0  0  0  0  0  0  0  0  0
   -5.8204    1.2389    0.0000 C   0  0  0  0  0  0  0  0  0  0  0  0
   -7.2470    1.7024    0.0000 N   0  0  0  0  0  0  0  0  0  0  0  0
   -8.3617    0.6987    0.0000 C   0  0  0  0  0  0  0  0  0  0  0  0
   -8.0498   -0.7685    0.0000 C   0  0  0  0  0  0  0  0  0  0  0  0
   -9.1645   -1.7722    0.0000 N   0  0  0  0  0  0  0  0  0  0  0  0
  -10.5911   -1.3086    0.0000 C   0  0  0  0  0  0  0  0  0  0  0  0
  -10.9030    0.1586    0.0000 O   0  0  0  0  0  0  0  0  0  0  0  0
  -11.7058   -2.3123    0.0000 C   0  0  0  0  0  0  0  0  0  0  0  0
  -13.1324   -1.8488    0.0000 C   0  0  0  0  0  0  0  0  0  0  0  0
  -13.4443   -0.3816    0.0000 C   0  0  0  0  0  0  0  0  0  0  0  0
  -14.8709    0.0819    0.0000 C   0  0  0  0  0  0  0  0  0  0  0  0
  -15.9856   -0.9218    0.0000 C   0  0  0  0  0  0  0  0  0  0  0  0
  -17.4122   -0.4582    0.0000 Cl  0  0  0  0  0  0  0  0  0  0  0  0
  -15.6737   -2.3890    0.0000 C   0  0  0  0  0  0  0  0  0  0  0  0
  -14.2471   -2.8525    0.0000 N   0  0  0  0  0  0  0  0  0  0  0  0
   -6.6232   -1.2320    0.0000 C   0  0  0  0  0  0  0  0  0  0  0  0
   -3.1240    1.8037    0.0000 C   0  0  0  0  0  0  0  0  0  0  0  0
   -1.7537    2.4138    0.0000 N   0  0  0  0  0  0  0  0  0  0  0  0
   -1.4418    3.8810    0.0000 C   0  0  0  0  0  0  0  0  0  0  0  0
   -0.1838    4.6979    0.0000 C   0  0  0  0  0  0  0  0  0  0  0  0
   -1.0008    5.9559    0.0000 C   0  0  0  0  0  0  0  0  0  0  0  0
   -2.2588    5.1390    0.0000 C   0  0  0  0  0  0  0  0  0  0  0  0
   -0.8894    4.8479    0.0000 C   0  0  0  0  0  0  0  0  0  0  0  0
   -0.7500    1.2990    0.0000 C   0  0  0  0  0  0  0  0  0  0  0  0
    0.7500    1.2990    0.0000 N   0  0  0  0  0  0  0  0  0  0  0  0
  1  2  1  0
  2  3  2  0
  3  4  1  0
  4  5  2  0
  5  6  1  0
  6  7  1  0
  7  8  2  0
  7  9  1  0
  9 10  2  0
 10 11  1  0
 11 12  2  0
 12 13  1  0
 13 14  1  0
 14 15  1  0
 15 16  2  0
 15 17  1  0
 17 18  1  0
 18 19  2  0
 19 20  1  0
 20 21  2  0
 21 22  1  0
 21 23  1  0
 23 24  2  0
 13 25  2  0
  6 26  2  0
 26 27  1  0
 27 28  1  0
 28 29  1  0
 29 30  1  0
 30 31  1  0
 30 32  1  0
 27 33  1  0
 33 34  2  0
 34  2  1  0
 33  5  1  0
 25  9  1  0
 31 28  1  0
 24 18  1  0
 32 28  1  0
M  END
>  <Compound_ID>  (254) 
CHEMBL3671472

>  <Molecule Name>  (254) 
nan

>  <Molecular Weight>  (254) 
473.92

>  <AlogP>  (254) 
3.38

>  <Smiles>  (254) 
Nc1ncc2c(C(=O)c3cncc(NC(=O)Cc4ccc(Cl)cn4)c3)cn(C34CC(C3)C4)c2n1

>  <Standard Type>  (254) 
IC50

>  <Standard Relation>  (254) 
'='

>  <Standard Units>  (254) 
nM

>  <Standard Value>  (254) 
0.681

>  <Assay ChEMBL ID>  (254) 
CHEMBL3887033

>  <Assay Description>  (254) 
Enzyme Assay: Isolated TRK Enzyme assays use the HTRF KinEASE-TK kit (Cisbio Cat# 62TK0PEJ) with recombinant His-tagged cytoplasmic domains of each TRK receptor sourced from Invitrogen (see table below). This activity-assay measures the phosphorylation of tyrosine residues within a substrate from the HTRF kit which has been validated by Cisbio for a variety of tyrosine kinases including the TRK receptors. Assay details: Target:TRKA; Invitrogen Cat# PV3144; Amino acids:aa 441-796; FAC enzyme:4nM; FAC ATP:40uM; Assay Reaction Time:35min.

>  <BAO Format ID>  (254) 
BAO_0000357

>  <BAO Label>  (254) 
single protein format

>  <Assay Organism>  (254) 
None

>  <Target ChEMBL ID>  (254) 
CHEMBL2815

>  <Target Name>  (254) 
Nerve growth factor receptor Trk-A

>  <Target Organism>  (254) 
Homo sapiens

>  <Target Type>  (254) 
SINGLE PROTEIN

>  <Document ChEMBL ID>  (254) 
CHEMBL3639348

>  <Source Description>  (254) 
BindingDB Database

>  <Document Journal>  (254) 
nan

>  <Document Year>  (254) 
2014.0

>  <Active>  (254) 
1.0

>  <bits>  (254) 
<rdkit.DataStructs.cDataStructs.ExplicitBitVect object at 0x00000159F60361F0>

>  <Group>  (254) 
G2

$$$$

     RDKit          2D

 37 40  0  0  0  0  0  0  0  0999 V2000
   -2.1766   -4.6157    0.0000 C   0  0  0  0  0  0  0  0  0  0  0  0
   -2.6401   -3.1891    0.0000 C   0  0  0  0  0  0  0  0  0  0  0  0
   -3.1036   -1.7626    0.0000 C   0  0  0  0  0  0  0  0  0  0  0  0
   -4.5709   -1.4507    0.0000 O   0  0  0  0  0  0  0  0  0  0  0  0
   -4.0667   -3.6527    0.0000 C   0  0  0  0  0  0  0  0  0  0  0  0
   -5.1814   -2.6490    0.0000 O   0  0  0  0  0  0  0  0  0  0  0  0
   -1.2135   -2.7256    0.0000 N   0  0  0  0  0  0  0  0  0  0  0  0
   -0.0000   -3.6073    0.0000 C   0  0  0  0  0  0  0  0  0  0  0  0
    1.2135   -2.7256    0.0000 C   0  0  0  0  0  0  0  0  0  0  0  0
    2.6401   -3.1891    0.0000 C   0  0  0  0  0  0  0  0  0  0  0  0
    3.7548   -2.1855    0.0000 O   0  0  0  0  0  0  0  0  0  0  0  0
    2.9520   -4.6564    0.0000 C   0  0  0  0  0  0  0  0  0  0  0  0
    1.8373   -5.6601    0.0000 C   0  0  0  0  0  0  0  0  0  0  0  0
    2.1491   -7.1273    0.0000 N   0  0  0  0  0  0  0  0  0  0  0  0
    3.5757   -7.5908    0.0000 C   0  0  0  0  0  0  0  0  0  0  0  0
    4.6904   -6.5871    0.0000 C   0  0  0  0  0  0  0  0  0  0  0  0
    6.1170   -7.0506    0.0000 N   0  0  0  0  0  0  0  0  0  0  0  0
    6.4289   -8.5179    0.0000 C   0  0  0  0  0  0  0  0  0  0  0  0
    5.3142   -9.5216    0.0000 O   0  0  0  0  0  0  0  0  0  0  0  0
    7.8555   -8.9814    0.0000 C   0  0  0  0  0  0  0  0  0  0  0  0
    8.1673  -10.4486    0.0000 C   0  0  0  0  0  0  0  0  0  0  0  0
    9.5939  -10.9121    0.0000 C   0  0  0  0  0  0  0  0  0  0  0  0
   10.7086   -9.9084    0.0000 C   0  0  0  0  0  0  0  0  0  0  0  0
   10.3968   -8.4412    0.0000 C   0  0  0  0  0  0  0  0  0  0  0  0
   11.5115   -7.4375    0.0000 O   0  0  0  0  0  0  0  0  0  0  0  0
   12.9381   -7.9010    0.0000 C   0  0  0  0  0  0  0  0  0  0  0  0
   14.3647   -8.3646    0.0000 F   0  0  0  0  0  0  0  0  0  0  0  0
   13.4016   -6.4745    0.0000 F   0  0  0  0  0  0  0  0  0  0  0  0
   12.4745   -9.3276    0.0000 F   0  0  0  0  0  0  0  0  0  0  0  0
    8.9702   -7.9777    0.0000 C   0  0  0  0  0  0  0  0  0  0  0  0
    4.3786   -5.1199    0.0000 C   0  0  0  0  0  0  0  0  0  0  0  0
    0.7500   -1.2990    0.0000 C   0  0  0  0  0  0  0  0  0  0  0  0
    1.5000    0.0000    0.0000 C   0  0  0  0  0  0  0  0  0  0  0  0
    0.7500    1.2990    0.0000 N   0  0  0  0  0  0  0  0  0  0  0  0
   -0.7500    1.2990    0.0000 C   0  0  0  0  0  0  0  0  0  0  0  0
   -1.5000    0.0000    0.0000 N   0  0  0  0  0  0  0  0  0  0  0  0
   -0.7500   -1.2990    0.0000 C   0  0  0  0  0  0  0  0  0  0  0  0
  1  2  1  0
  2  3  1  0
  3  4  1  0
  2  5  1  0
  5  6  1  0
  2  7  1  0
  7  8  1  0
  8  9  2  0
  9 10  1  0
 10 11  2  0
 10 12  1  0
 12 13  2  0
 13 14  1  0
 14 15  2  0
 15 16  1  0
 16 17  1  0
 17 18  1  0
 18 19  2  0
 18 20  1  0
 20 21  2  0
 21 22  1  0
 22 23  2  0
 23 24  1  0
 24 25  1  0
 25 26  1  0
 26 27  1  0
 26 28  1  0
 26 29  1  0
 24 30  2  0
 16 31  2  0
  9 32  1  0
 32 33  2  0
 33 34  1  0
 34 35  2  0
 35 36  1  0
 36 37  2  0
 37  7  1  0
 31 12  1  0
 37 32  1  0
 30 20  1  0
M  END
>  <Compound_ID>  (255) 
CHEMBL3671463

>  <Molecule Name>  (255) 
nan

>  <Molecular Weight>  (255) 
515.45

>  <AlogP>  (255) 
2.91

>  <Smiles>  (255) 
CC(CO)(CO)n1cc(C(=O)c2cncc(NC(=O)c3cccc(OC(F)(F)F)c3)c2)c2cncnc21

>  <Standard Type>  (255) 
IC50

>  <Standard Relation>  (255) 
'='

>  <Standard Units>  (255) 
nM

>  <Standard Value>  (255) 
32.3

>  <Assay ChEMBL ID>  (255) 
CHEMBL3887033

>  <Assay Description>  (255) 
Enzyme Assay: Isolated TRK Enzyme assays use the HTRF KinEASE-TK kit (Cisbio Cat# 62TK0PEJ) with recombinant His-tagged cytoplasmic domains of each TRK receptor sourced from Invitrogen (see table below). This activity-assay measures the phosphorylation of tyrosine residues within a substrate from the HTRF kit which has been validated by Cisbio for a variety of tyrosine kinases including the TRK receptors. Assay details: Target:TRKA; Invitrogen Cat# PV3144; Amino acids:aa 441-796; FAC enzyme:4nM; FAC ATP:40uM; Assay Reaction Time:35min.

>  <BAO Format ID>  (255) 
BAO_0000357

>  <BAO Label>  (255) 
single protein format

>  <Assay Organism>  (255) 
None

>  <Target ChEMBL ID>  (255) 
CHEMBL2815

>  <Target Name>  (255) 
Nerve growth factor receptor Trk-A

>  <Target Organism>  (255) 
Homo sapiens

>  <Target Type>  (255) 
SINGLE PROTEIN

>  <Document ChEMBL ID>  (255) 
CHEMBL3639348

>  <Source Description>  (255) 
BindingDB Database

>  <Document Journal>  (255) 
nan

>  <Document Year>  (255) 
2014.0

>  <Active>  (255) 
1.0

>  <bits>  (255) 
<rdkit.DataStructs.cDataStructs.ExplicitBitVect object at 0x00000159F6035E00>

>  <Group>  (255) 
G2

$$$$

     RDKit          2D

 38 42  0  0  0  0  0  0  0  0999 V2000
   -7.9882  -15.8540    0.0000 C   0  0  0  0  0  0  0  0  0  0  0  0
   -6.5616  -15.3904    0.0000 O   0  0  0  0  0  0  0  0  0  0  0  0
   -6.2498  -13.9232    0.0000 C   0  0  0  0  0  0  0  0  0  0  0  0
   -7.3645  -12.9195    0.0000 C   0  0  0  0  0  0  0  0  0  0  0  0
   -7.0526  -11.4523    0.0000 C   0  0  0  0  0  0  0  0  0  0  0  0
   -5.6260  -10.9888    0.0000 C   0  0  0  0  0  0  0  0  0  0  0  0
   -5.3142   -9.5216    0.0000 C   0  0  0  0  0  0  0  0  0  0  0  0
   -3.8876   -9.0580    0.0000 O   0  0  0  0  0  0  0  0  0  0  0  0
   -3.5757   -7.5908    0.0000 C   0  0  0  0  0  0  0  0  0  0  0  0
   -2.1491   -7.1273    0.0000 C   0  0  0  0  0  0  0  0  0  0  0  0
   -1.8373   -5.6601    0.0000 C   0  0  0  0  0  0  0  0  0  0  0  0
   -2.9520   -4.6564    0.0000 C   0  0  0  0  0  0  0  0  0  0  0  0
   -2.6401   -3.1891    0.0000 C   0  0  0  0  0  0  0  0  0  0  0  0
   -1.2135   -2.7256    0.0000 N   0  0  0  0  0  0  0  0  0  0  0  0
   -0.0000   -3.6073    0.0000 C   0  0  0  0  0  0  0  0  0  0  0  0
    1.2135   -2.7256    0.0000 N   0  0  0  0  0  0  0  0  0  0  0  0
    0.7500   -1.2990    0.0000 C   0  0  0  0  0  0  0  0  0  0  0  0
    1.5000    0.0000    0.0000 C   0  0  0  0  0  0  0  0  0  0  0  0
    0.7500    1.2990    0.0000 C   0  0  0  0  0  0  0  0  0  0  0  0
    1.5000    2.5981    0.0000 N   0  0  0  0  0  0  0  0  0  0  0  0
    3.0000    2.5981    0.0000 C   0  0  0  0  0  0  0  0  0  0  0  0
    3.7500    3.8971    0.0000 C   0  0  0  0  0  0  0  0  0  0  0  0
    3.0000    5.1962    0.0000 C   0  0  0  0  0  0  0  0  0  0  0  0
    3.7500    6.4952    0.0000 C   0  0  0  0  0  0  0  0  0  0  0  0
    2.4510    7.2452    0.0000 C   0  0  0  0  0  0  0  0  0  0  0  0
    5.0490    5.7452    0.0000 C   0  0  0  0  0  0  0  0  0  0  0  0
    4.5000    7.7942    0.0000 N   0  0  0  0  0  0  0  0  0  0  0  0
    1.5000    5.1962    0.0000 C   0  0  0  0  0  0  0  0  0  0  0  0
    0.7500    3.8971    0.0000 C   0  0  0  0  0  0  0  0  0  0  0  0
   -0.7500    1.2990    0.0000 C   0  0  0  0  0  0  0  0  0  0  0  0
   -1.5000    0.0000    0.0000 N   0  0  0  0  0  0  0  0  0  0  0  0
   -0.7500   -1.2990    0.0000 C   0  0  0  0  0  0  0  0  0  0  0  0
   -4.3786   -5.1199    0.0000 C   0  0  0  0  0  0  0  0  0  0  0  0
   -4.6904   -6.5871    0.0000 C   0  0  0  0  0  0  0  0  0  0  0  0
   -6.1170   -7.0506    0.0000 O   0  0  0  0  0  0  0  0  0  0  0  0
   -7.2317   -6.0469    0.0000 C   0  0  0  0  0  0  0  0  0  0  0  0
   -4.5113  -11.9925    0.0000 C   0  0  0  0  0  0  0  0  0  0  0  0
   -4.8232  -13.4597    0.0000 N   0  0  0  0  0  0  0  0  0  0  0  0
  1  2  1  0
  2  3  1  0
  3  4  2  0
  4  5  1  0
  5  6  2  0
  6  7  1  0
  7  8  1  0
  8  9  1  0
  9 10  2  0
 10 11  1  0
 11 12  2  0
 12 13  1  0
 13 14  1  0
 14 15  1  0
 15 16  2  0
 16 17  1  0
 17 18  2  0
 18 19  1  0
 19 20  1  0
 20 21  1  0
 21 22  1  0
 22 23  1  0
 23 24  1  0
 24 25  1  0
 24 26  1  0
 24 27  1  0
 23 28  1  0
 28 29  1  0
 19 30  2  0
 30 31  1  0
 31 32  2  0
 12 33  1  0
 33 34  2  0
 34 35  1  0
 35 36  1  0
  6 37  1  0
 37 38  2  0
 38  3  1  0
 34  9  1  0
 32 14  1  0
 32 17  1  0
 29 20  1  0
M  END
>  <Compound_ID>  (256) 
CHEMBL3673455

>  <Molecule Name>  (256) 
nan

>  <Molecular Weight>  (256) 
516.65

>  <AlogP>  (256) 
4.42

>  <Smiles>  (256) 
COc1ccc(COc2ccc(Cn3cnc4cc(N5CCC(C(C)(C)N)CC5)cnc43)cc2OC)cn1

>  <Standard Type>  (256) 
IC50

>  <Standard Relation>  (256) 
'='

>  <Standard Units>  (256) 
nM

>  <Standard Value>  (256) 
54.0

>  <Assay ChEMBL ID>  (256) 
CHEMBL3887112

>  <Assay Description>  (256) 
Inhibition Assay: Reagents and consumables were purchased from Sigma Aldrich, Carna Biosciences, or Caliper Life Sciences. All assay reaction conditions for IC50 determinations were within the linear range with respect to time and enzyme concentration. In a 384 well polypropylene plate, TrkA (0.4 nM, Carna 08-186) was pre-incubated in a 100 mM Hepes-NaOH pH 7.5 buffer containing 0.01% Triton X-100, 10 mM MgCl2, 0.1% BSA, 1 mM DTT, 10 uM sodium orthovanadate and 10 uM beta-glycerophosphate and compound with a concentration of 2.5% DMSO for 15 minutes at room temperature. The reaction was initiated with an equal volume of peptide substrate (Caliper Life Sciences catalog no. 760430) and ATP in the aforementioned buffer. The final concentrations in the reaction were 200 pM TrkA, 1.5 uM peptide substrate and 55 uM ATP (ATP Km). The reaction was incubated at room temperature for 180 minutes and terminated with a buffer containing excess EDTA (100 mM Hepes-NaOH pH 7.5, 0.02% Brij.

>  <BAO Format ID>  (256) 
BAO_0000357

>  <BAO Label>  (256) 
single protein format

>  <Assay Organism>  (256) 
None

>  <Target ChEMBL ID>  (256) 
CHEMBL2815

>  <Target Name>  (256) 
Nerve growth factor receptor Trk-A

>  <Target Organism>  (256) 
Homo sapiens

>  <Target Type>  (256) 
SINGLE PROTEIN

>  <Document ChEMBL ID>  (256) 
CHEMBL3638818

>  <Source Description>  (256) 
BindingDB Database

>  <Document Journal>  (256) 
nan

>  <Document Year>  (256) 
2015.0

>  <Active>  (256) 
1.0

>  <bits>  (256) 
<rdkit.DataStructs.cDataStructs.ExplicitBitVect object at 0x00000159F6037A00>

>  <Group>  (256) 
G2

$$$$

     RDKit          2D

 34 38  0  0  0  0  0  0  0  0999 V2000
   -2.9520   -4.6564    0.0000 C   0  0  0  0  0  0  0  0  0  0  0  0
   -2.6401   -3.1891    0.0000 C   0  0  0  0  0  0  0  0  0  0  0  0
   -3.7548   -2.1855    0.0000 C   0  0  0  0  0  0  0  0  0  0  0  0
   -1.2135   -2.7256    0.0000 N   0  0  0  0  0  0  0  0  0  0  0  0
   -0.0000   -3.6073    0.0000 C   0  0  0  0  0  0  0  0  0  0  0  0
    1.2135   -2.7256    0.0000 C   0  0  0  0  0  0  0  0  0  0  0  0
    2.6401   -3.1891    0.0000 C   0  0  0  0  0  0  0  0  0  0  0  0
    3.7548   -2.1855    0.0000 O   0  0  0  0  0  0  0  0  0  0  0  0
    2.9520   -4.6564    0.0000 C   0  0  0  0  0  0  0  0  0  0  0  0
    1.8373   -5.6601    0.0000 C   0  0  0  0  0  0  0  0  0  0  0  0
    2.1491   -7.1273    0.0000 N   0  0  0  0  0  0  0  0  0  0  0  0
    3.5757   -7.5908    0.0000 C   0  0  0  0  0  0  0  0  0  0  0  0
    4.6904   -6.5871    0.0000 C   0  0  0  0  0  0  0  0  0  0  0  0
    6.1170   -7.0506    0.0000 N   0  0  0  0  0  0  0  0  0  0  0  0
    6.4289   -8.5179    0.0000 C   0  0  0  0  0  0  0  0  0  0  0  0
    5.3142   -9.5216    0.0000 O   0  0  0  0  0  0  0  0  0  0  0  0
    7.8555   -8.9814    0.0000 C   0  0  0  0  0  0  0  0  0  0  0  0
    8.1673  -10.4486    0.0000 C   0  0  0  0  0  0  0  0  0  0  0  0
    7.0526  -11.4523    0.0000 C   0  0  0  0  0  0  0  0  0  0  0  0
    7.3645  -12.9195    0.0000 C   0  0  0  0  0  0  0  0  0  0  0  0
    8.7911  -13.3831    0.0000 C   0  0  0  0  0  0  0  0  0  0  0  0
    9.9058  -12.3794    0.0000 C   0  0  0  0  0  0  0  0  0  0  0  0
    9.5939  -10.9121    0.0000 C   0  0  0  0  0  0  0  0  0  0  0  0
   10.7086   -9.9084    0.0000 O   0  0  0  0  0  0  0  0  0  0  0  0
   12.1352  -10.3720    0.0000 C   0  0  0  0  0  0  0  0  0  0  0  0
   13.6024  -10.0601    0.0000 C   0  0  0  0  0  0  0  0  0  0  0  0
   13.1389  -11.4867    0.0000 C   0  0  0  0  0  0  0  0  0  0  0  0
    4.3786   -5.1199    0.0000 C   0  0  0  0  0  0  0  0  0  0  0  0
    0.7500   -1.2990    0.0000 C   0  0  0  0  0  0  0  0  0  0  0  0
    1.5000    0.0000    0.0000 C   0  0  0  0  0  0  0  0  0  0  0  0
    0.7500    1.2990    0.0000 N   0  0  0  0  0  0  0  0  0  0  0  0
   -0.7500    1.2990    0.0000 C   0  0  0  0  0  0  0  0  0  0  0  0
   -1.5000    0.0000    0.0000 N   0  0  0  0  0  0  0  0  0  0  0  0
   -0.7500   -1.2990    0.0000 C   0  0  0  0  0  0  0  0  0  0  0  0
  1  2  1  0
  2  3  1  0
  2  4  1  0
  4  5  1  0
  5  6  2  0
  6  7  1  0
  7  8  2  0
  7  9  1  0
  9 10  2  0
 10 11  1  0
 11 12  2  0
 12 13  1  0
 13 14  1  0
 14 15  1  0
 15 16  2  0
 15 17  1  0
 17 18  1  0
 18 19  2  0
 19 20  1  0
 20 21  2  0
 21 22  1  0
 22 23  2  0
 23 24  1  0
 24 25  1  0
 25 26  1  0
 26 27  1  0
 13 28  2  0
  6 29  1  0
 29 30  2  0
 30 31  1  0
 31 32  2  0
 32 33  1  0
 33 34  2  0
 34  4  1  0
 28  9  1  0
 34 29  1  0
 23 18  1  0
 27 25  1  0
M  END
>  <Compound_ID>  (257) 
CHEMBL3661465

>  <Molecule Name>  (257) 
nan

>  <Molecular Weight>  (257) 
455.52

>  <AlogP>  (257) 
4.36

>  <Smiles>  (257) 
CC(C)n1cc(C(=O)c2cncc(NC(=O)Cc3ccccc3OC3CC3)c2)c2cncnc21

>  <Standard Type>  (257) 
IC50

>  <Standard Relation>  (257) 
'='

>  <Standard Units>  (257) 
nM

>  <Standard Value>  (257) 
22.8

>  <Assay ChEMBL ID>  (257) 
CHEMBL3887033

>  <Assay Description>  (257) 
Enzyme Assay: Isolated TRK Enzyme assays use the HTRF KinEASE-TK kit (Cisbio Cat# 62TK0PEJ) with recombinant His-tagged cytoplasmic domains of each TRK receptor sourced from Invitrogen (see table below). This activity-assay measures the phosphorylation of tyrosine residues within a substrate from the HTRF kit which has been validated by Cisbio for a variety of tyrosine kinases including the TRK receptors. Assay details: Target:TRKA; Invitrogen Cat# PV3144; Amino acids:aa 441-796; FAC enzyme:4nM; FAC ATP:40uM; Assay Reaction Time:35min.

>  <BAO Format ID>  (257) 
BAO_0000357

>  <BAO Label>  (257) 
single protein format

>  <Assay Organism>  (257) 
None

>  <Target ChEMBL ID>  (257) 
CHEMBL2815

>  <Target Name>  (257) 
Nerve growth factor receptor Trk-A

>  <Target Organism>  (257) 
Homo sapiens

>  <Target Type>  (257) 
SINGLE PROTEIN

>  <Document ChEMBL ID>  (257) 
CHEMBL3639348

>  <Source Description>  (257) 
BindingDB Database

>  <Document Journal>  (257) 
nan

>  <Document Year>  (257) 
2014.0

>  <Active>  (257) 
1.0

>  <bits>  (257) 
<rdkit.DataStructs.cDataStructs.ExplicitBitVect object at 0x00000159F6035CB0>

>  <Group>  (257) 
G2

$$$$

     RDKit          2D

 33 37  0  0  0  0  0  0  0  0999 V2000
   -2.9520   -4.6564    0.0000 C   0  0  0  0  0  0  0  0  0  0  0  0
   -2.6401   -3.1891    0.0000 C   0  0  0  0  0  0  0  0  0  0  0  0
   -3.7548   -2.1855    0.0000 C   0  0  0  0  0  0  0  0  0  0  0  0
   -1.2135   -2.7256    0.0000 N   0  0  0  0  0  0  0  0  0  0  0  0
   -0.0000   -3.6073    0.0000 C   0  0  0  0  0  0  0  0  0  0  0  0
    1.2135   -2.7256    0.0000 C   0  0  0  0  0  0  0  0  0  0  0  0
    2.6401   -3.1891    0.0000 C   0  0  0  0  0  0  0  0  0  0  0  0
    3.7548   -2.1855    0.0000 O   0  0  0  0  0  0  0  0  0  0  0  0
    2.9520   -4.6564    0.0000 C   0  0  0  0  0  0  0  0  0  0  0  0
    1.8373   -5.6601    0.0000 C   0  0  0  0  0  0  0  0  0  0  0  0
    2.1491   -7.1273    0.0000 N   0  0  0  0  0  0  0  0  0  0  0  0
    3.5757   -7.5908    0.0000 C   0  0  0  0  0  0  0  0  0  0  0  0
    4.6904   -6.5871    0.0000 C   0  0  0  0  0  0  0  0  0  0  0  0
    6.1170   -7.0506    0.0000 N   0  0  0  0  0  0  0  0  0  0  0  0
    6.4289   -8.5179    0.0000 C   0  0  0  0  0  0  0  0  0  0  0  0
    5.3142   -9.5216    0.0000 O   0  0  0  0  0  0  0  0  0  0  0  0
    7.8555   -8.9814    0.0000 C   0  0  0  0  0  0  0  0  0  0  0  0
    8.1673  -10.4486    0.0000 C   0  0  0  0  0  0  0  0  0  0  0  0
    9.5377  -11.0587    0.0000 C   0  0  0  0  0  0  0  0  0  0  0  0
    9.3809  -12.5505    0.0000 N   0  0  0  0  0  0  0  0  0  0  0  0
   10.1309  -13.8495    0.0000 C   0  0  0  0  0  0  0  0  0  0  0  0
    9.1272  -14.9643    0.0000 C   0  0  0  0  0  0  0  0  0  0  0  0
    9.4390  -16.4315    0.0000 Cl  0  0  0  0  0  0  0  0  0  0  0  0
    7.7568  -14.3541    0.0000 S   0  0  0  0  0  0  0  0  0  0  0  0
    7.9136  -12.8624    0.0000 C   0  0  0  0  0  0  0  0  0  0  0  0
    7.1636  -11.5633    0.0000 N   0  0  0  0  0  0  0  0  0  0  0  0
    4.3786   -5.1199    0.0000 C   0  0  0  0  0  0  0  0  0  0  0  0
    0.7500   -1.2990    0.0000 C   0  0  0  0  0  0  0  0  0  0  0  0
    1.5000    0.0000    0.0000 C   0  0  0  0  0  0  0  0  0  0  0  0
    0.7500    1.2990    0.0000 N   0  0  0  0  0  0  0  0  0  0  0  0
   -0.7500    1.2990    0.0000 C   0  0  0  0  0  0  0  0  0  0  0  0
   -1.5000    0.0000    0.0000 N   0  0  0  0  0  0  0  0  0  0  0  0
   -0.7500   -1.2990    0.0000 C   0  0  0  0  0  0  0  0  0  0  0  0
  1  2  1  0
  2  3  1  0
  2  4  1  0
  4  5  1  0
  5  6  2  0
  6  7  1  0
  7  8  2  0
  7  9  1  0
  9 10  2  0
 10 11  1  0
 11 12  2  0
 12 13  1  0
 13 14  1  0
 14 15  1  0
 15 16  2  0
 15 17  1  0
 17 18  1  0
 18 19  2  0
 19 20  1  0
 20 21  1  0
 21 22  2  0
 22 23  1  0
 22 24  1  0
 24 25  1  0
 25 26  2  0
 13 27  2  0
  6 28  1  0
 28 29  2  0
 29 30  1  0
 30 31  2  0
 31 32  1  0
 32 33  2  0
 33  4  1  0
 27  9  1  0
 33 28  1  0
 26 18  1  0
 25 20  1  0
M  END
>  <Compound_ID>  (258) 
CHEMBL3666355

>  <Molecule Name>  (258) 
nan

>  <Molecular Weight>  (258) 
479.95

>  <AlogP>  (258) 
4.18

>  <Smiles>  (258) 
CC(C)n1cc(C(=O)c2cncc(NC(=O)Cc3cn4cc(Cl)sc4n3)c2)c2cncnc21

>  <Standard Type>  (258) 
IC50

>  <Standard Relation>  (258) 
'='

>  <Standard Units>  (258) 
nM

>  <Standard Value>  (258) 
97.0

>  <Assay ChEMBL ID>  (258) 
CHEMBL3887033

>  <Assay Description>  (258) 
Enzyme Assay: Isolated TRK Enzyme assays use the HTRF KinEASE-TK kit (Cisbio Cat# 62TK0PEJ) with recombinant His-tagged cytoplasmic domains of each TRK receptor sourced from Invitrogen (see table below). This activity-assay measures the phosphorylation of tyrosine residues within a substrate from the HTRF kit which has been validated by Cisbio for a variety of tyrosine kinases including the TRK receptors. Assay details: Target:TRKA; Invitrogen Cat# PV3144; Amino acids:aa 441-796; FAC enzyme:4nM; FAC ATP:40uM; Assay Reaction Time:35min.

>  <BAO Format ID>  (258) 
BAO_0000357

>  <BAO Label>  (258) 
single protein format

>  <Assay Organism>  (258) 
None

>  <Target ChEMBL ID>  (258) 
CHEMBL2815

>  <Target Name>  (258) 
Nerve growth factor receptor Trk-A

>  <Target Organism>  (258) 
Homo sapiens

>  <Target Type>  (258) 
SINGLE PROTEIN

>  <Document ChEMBL ID>  (258) 
CHEMBL3639348

>  <Source Description>  (258) 
BindingDB Database

>  <Document Journal>  (258) 
nan

>  <Document Year>  (258) 
2014.0

>  <Active>  (258) 
1.0

>  <bits>  (258) 
<rdkit.DataStructs.cDataStructs.ExplicitBitVect object at 0x00000159F6037A70>

>  <Group>  (258) 
G2

$$$$

     RDKit          2D

 36 39  0  0  0  0  0  0  0  0999 V2000
   -6.9199   -4.5797    0.0000 O   0  0  0  0  0  0  0  0  0  0  0  0
   -7.2317   -6.0469    0.0000 C   0  0  0  0  0  0  0  0  0  0  0  0
   -6.1170   -7.0506    0.0000 N   0  0  0  0  0  0  0  0  0  0  0  0
   -4.6904   -6.5871    0.0000 C   0  0  0  0  0  0  0  0  0  0  0  0
   -3.5757   -7.5908    0.0000 C   0  0  0  0  0  0  0  0  0  0  0  0
   -2.1491   -7.1273    0.0000 N   0  0  0  0  0  0  0  0  0  0  0  0
   -1.8373   -5.6601    0.0000 C   0  0  0  0  0  0  0  0  0  0  0  0
   -2.9520   -4.6564    0.0000 C   0  0  0  0  0  0  0  0  0  0  0  0
   -2.6401   -3.1891    0.0000 C   0  0  0  0  0  0  0  0  0  0  0  0
   -3.7548   -2.1855    0.0000 O   0  0  0  0  0  0  0  0  0  0  0  0
   -1.2135   -2.7256    0.0000 C   0  0  0  0  0  0  0  0  0  0  0  0
   -0.0000   -3.6073    0.0000 C   0  0  0  0  0  0  0  0  0  0  0  0
    1.2135   -2.7256    0.0000 N   0  0  0  0  0  0  0  0  0  0  0  0
    2.6401   -3.1891    0.0000 C   0  0  0  0  0  0  0  0  0  0  0  0
    2.9520   -4.6564    0.0000 C   0  0  0  0  0  0  0  0  0  0  0  0
    4.3786   -5.1199    0.0000 O   0  0  0  0  0  0  0  0  0  0  0  0
    3.7548   -2.1855    0.0000 C   0  0  0  0  0  0  0  0  0  0  0  0
    5.1814   -2.6490    0.0000 O   0  0  0  0  0  0  0  0  0  0  0  0
    0.7500   -1.2990    0.0000 C   0  0  0  0  0  0  0  0  0  0  0  0
    1.5000    0.0000    0.0000 N   0  0  0  0  0  0  0  0  0  0  0  0
    0.7500    1.2990    0.0000 C   0  0  0  0  0  0  0  0  0  0  0  0
   -0.7500    1.2990    0.0000 N   0  0  0  0  0  0  0  0  0  0  0  0
   -1.5000    0.0000    0.0000 C   0  0  0  0  0  0  0  0  0  0  0  0
   -0.7500   -1.2990    0.0000 C   0  0  0  0  0  0  0  0  0  0  0  0
   -4.3786   -5.1199    0.0000 C   0  0  0  0  0  0  0  0  0  0  0  0
   -8.6583   -6.5105    0.0000 C   0  0  0  0  0  0  0  0  0  0  0  0
   -9.7730   -5.5068    0.0000 C   0  0  0  0  0  0  0  0  0  0  0  0
  -11.1996   -5.9703    0.0000 C   0  0  0  0  0  0  0  0  0  0  0  0
  -11.5115   -7.4375    0.0000 C   0  0  0  0  0  0  0  0  0  0  0  0
  -10.3968   -8.4412    0.0000 C   0  0  0  0  0  0  0  0  0  0  0  0
  -10.7086   -9.9084    0.0000 O   0  0  0  0  0  0  0  0  0  0  0  0
  -12.1352  -10.3720    0.0000 C   0  0  0  0  0  0  0  0  0  0  0  0
  -13.5618  -10.8355    0.0000 F   0  0  0  0  0  0  0  0  0  0  0  0
  -11.6717  -11.7986    0.0000 F   0  0  0  0  0  0  0  0  0  0  0  0
  -12.5987   -8.9454    0.0000 F   0  0  0  0  0  0  0  0  0  0  0  0
   -8.9702   -7.9777    0.0000 C   0  0  0  0  0  0  0  0  0  0  0  0
  1  2  2  0
  2  3  1  0
  3  4  1  0
  4  5  2  0
  5  6  1  0
  6  7  2  0
  7  8  1  0
  8  9  1  0
  9 10  2  0
  9 11  1  0
 11 12  2  0
 12 13  1  0
 13 14  1  0
 14 15  1  0
 15 16  1  0
 14 17  1  0
 17 18  1  0
 13 19  1  0
 19 20  2  0
 20 21  1  0
 21 22  2  0
 22 23  1  0
 23 24  2  0
  8 25  2  0
  2 26  1  0
 26 27  2  0
 27 28  1  0
 28 29  2  0
 29 30  1  0
 30 31  1  0
 31 32  1  0
 32 33  1  0
 32 34  1  0
 32 35  1  0
 30 36  2  0
 25  4  1  0
 36 26  1  0
 24 11  1  0
 24 19  1  0
M  END
>  <Compound_ID>  (259) 
CHEMBL3666272

>  <Molecule Name>  (259) 
nan

>  <Molecular Weight>  (259) 
501.42

>  <AlogP>  (259) 
2.73

>  <Smiles>  (259) 
O=C(Nc1cncc(C(=O)c2cn(C(CO)CO)c3ncncc23)c1)c1cccc(OC(F)(F)F)c1

>  <Standard Type>  (259) 
IC50

>  <Standard Relation>  (259) 
'='

>  <Standard Units>  (259) 
nM

>  <Standard Value>  (259) 
39.0

>  <Assay ChEMBL ID>  (259) 
CHEMBL3887033

>  <Assay Description>  (259) 
Enzyme Assay: Isolated TRK Enzyme assays use the HTRF KinEASE-TK kit (Cisbio Cat# 62TK0PEJ) with recombinant His-tagged cytoplasmic domains of each TRK receptor sourced from Invitrogen (see table below). This activity-assay measures the phosphorylation of tyrosine residues within a substrate from the HTRF kit which has been validated by Cisbio for a variety of tyrosine kinases including the TRK receptors. Assay details: Target:TRKA; Invitrogen Cat# PV3144; Amino acids:aa 441-796; FAC enzyme:4nM; FAC ATP:40uM; Assay Reaction Time:35min.

>  <BAO Format ID>  (259) 
BAO_0000357

>  <BAO Label>  (259) 
single protein format

>  <Assay Organism>  (259) 
None

>  <Target ChEMBL ID>  (259) 
CHEMBL2815

>  <Target Name>  (259) 
Nerve growth factor receptor Trk-A

>  <Target Organism>  (259) 
Homo sapiens

>  <Target Type>  (259) 
SINGLE PROTEIN

>  <Document ChEMBL ID>  (259) 
CHEMBL3639348

>  <Source Description>  (259) 
BindingDB Database

>  <Document Journal>  (259) 
nan

>  <Document Year>  (259) 
2014.0

>  <Active>  (259) 
1.0

>  <bits>  (259) 
<rdkit.DataStructs.cDataStructs.ExplicitBitVect object at 0x00000159F6035930>

>  <Group>  (259) 
G2

$$$$

     RDKit          2D

 33 36  0  0  0  0  0  0  0  0999 V2000
  -14.0921   -2.9925    0.0000 C   0  0  0  0  0  0  0  0  0  0  0  0
  -13.4820   -4.3628    0.0000 C   0  0  0  0  0  0  0  0  0  0  0  0
  -14.3637   -5.5763    0.0000 C   0  0  0  0  0  0  0  0  0  0  0  0
  -11.9903   -4.5196    0.0000 C   0  0  0  0  0  0  0  0  0  0  0  0
  -11.2403   -5.8186    0.0000 C   0  0  0  0  0  0  0  0  0  0  0  0
   -9.7730   -5.5068    0.0000 N   0  0  0  0  0  0  0  0  0  0  0  0
   -8.6583   -6.5105    0.0000 C   0  0  0  0  0  0  0  0  0  0  0  0
   -7.2317   -6.0469    0.0000 C   0  0  0  0  0  0  0  0  0  0  0  0
   -6.9199   -4.5797    0.0000 O   0  0  0  0  0  0  0  0  0  0  0  0
   -6.1170   -7.0506    0.0000 N   0  0  0  0  0  0  0  0  0  0  0  0
   -4.6904   -6.5871    0.0000 C   0  0  0  0  0  0  0  0  0  0  0  0
   -3.5757   -7.5908    0.0000 C   0  0  0  0  0  0  0  0  0  0  0  0
   -2.1491   -7.1273    0.0000 N   0  0  0  0  0  0  0  0  0  0  0  0
   -1.8373   -5.6601    0.0000 C   0  0  0  0  0  0  0  0  0  0  0  0
   -2.9520   -4.6564    0.0000 C   0  0  0  0  0  0  0  0  0  0  0  0
   -2.6401   -3.1891    0.0000 C   0  0  0  0  0  0  0  0  0  0  0  0
   -3.7548   -2.1855    0.0000 O   0  0  0  0  0  0  0  0  0  0  0  0
   -1.2135   -2.7256    0.0000 C   0  0  0  0  0  0  0  0  0  0  0  0
   -0.0000   -3.6073    0.0000 C   0  0  0  0  0  0  0  0  0  0  0  0
    1.2135   -2.7256    0.0000 N   0  0  0  0  0  0  0  0  0  0  0  0
    2.6401   -3.1891    0.0000 C   0  0  0  0  0  0  0  0  0  0  0  0
    2.9520   -4.6564    0.0000 C   0  0  0  0  0  0  0  0  0  0  0  0
    3.7548   -2.1855    0.0000 C   0  0  0  0  0  0  0  0  0  0  0  0
    0.7500   -1.2990    0.0000 C   0  0  0  0  0  0  0  0  0  0  0  0
    1.5000    0.0000    0.0000 N   0  0  0  0  0  0  0  0  0  0  0  0
    0.7500    1.2990    0.0000 C   0  0  0  0  0  0  0  0  0  0  0  0
    1.5000    2.5981    0.0000 N   0  0  0  0  0  0  0  0  0  0  0  0
   -0.7500    1.2990    0.0000 N   0  0  0  0  0  0  0  0  0  0  0  0
   -1.5000    0.0000    0.0000 C   0  0  0  0  0  0  0  0  0  0  0  0
   -0.7500   -1.2990    0.0000 C   0  0  0  0  0  0  0  0  0  0  0  0
   -4.3786   -5.1199    0.0000 C   0  0  0  0  0  0  0  0  0  0  0  0
   -9.6162   -4.0150    0.0000 N   0  0  0  0  0  0  0  0  0  0  0  0
  -10.9866   -3.4049    0.0000 N   0  0  0  0  0  0  0  0  0  0  0  0
  1  2  1  0
  2  3  1  0
  2  4  1  0
  4  5  2  0
  5  6  1  0
  6  7  1  0
  7  8  1  0
  8  9  2  0
  8 10  1  0
 10 11  1  0
 11 12  2  0
 12 13  1  0
 13 14  2  0
 14 15  1  0
 15 16  1  0
 16 17  2  0
 16 18  1  0
 18 19  2  0
 19 20  1  0
 20 21  1  0
 21 22  1  0
 21 23  1  0
 20 24  1  0
 24 25  2  0
 25 26  1  0
 26 27  1  0
 26 28  2  0
 28 29  1  0
 29 30  2  0
 15 31  2  0
  6 32  1  0
 32 33  2  0
 33  4  1  0
 31 11  1  0
 30 18  1  0
 30 24  1  0
M  END
>  <Compound_ID>  (260) 
CHEMBL3666252

>  <Molecule Name>  (260) 
nan

>  <Molecular Weight>  (260) 
447.5

>  <AlogP>  (260) 
2.57

>  <Smiles>  (260) 
CC(C)c1cn(CC(=O)Nc2cncc(C(=O)c3cn(C(C)C)c4nc(N)ncc34)c2)nn1

>  <Standard Type>  (260) 
IC50

>  <Standard Relation>  (260) 
'='

>  <Standard Units>  (260) 
nM

>  <Standard Value>  (260) 
23.7

>  <Assay ChEMBL ID>  (260) 
CHEMBL3887033

>  <Assay Description>  (260) 
Enzyme Assay: Isolated TRK Enzyme assays use the HTRF KinEASE-TK kit (Cisbio Cat# 62TK0PEJ) with recombinant His-tagged cytoplasmic domains of each TRK receptor sourced from Invitrogen (see table below). This activity-assay measures the phosphorylation of tyrosine residues within a substrate from the HTRF kit which has been validated by Cisbio for a variety of tyrosine kinases including the TRK receptors. Assay details: Target:TRKA; Invitrogen Cat# PV3144; Amino acids:aa 441-796; FAC enzyme:4nM; FAC ATP:40uM; Assay Reaction Time:35min.

>  <BAO Format ID>  (260) 
BAO_0000357

>  <BAO Label>  (260) 
single protein format

>  <Assay Organism>  (260) 
None

>  <Target ChEMBL ID>  (260) 
CHEMBL2815

>  <Target Name>  (260) 
Nerve growth factor receptor Trk-A

>  <Target Organism>  (260) 
Homo sapiens

>  <Target Type>  (260) 
SINGLE PROTEIN

>  <Document ChEMBL ID>  (260) 
CHEMBL3639348

>  <Source Description>  (260) 
BindingDB Database

>  <Document Journal>  (260) 
nan

>  <Document Year>  (260) 
2014.0

>  <Active>  (260) 
1.0

>  <bits>  (260) 
<rdkit.DataStructs.cDataStructs.ExplicitBitVect object at 0x00000159F60347B0>

>  <Group>  (260) 
G2

$$$$

     RDKit          2D

 34 37  0  0  0  0  0  0  0  0999 V2000
   -8.3172   -3.2650    0.0000 C   0  0  0  0  0  0  0  0  0  0  0  0
   -9.6162   -4.0150    0.0000 C   0  0  0  0  0  0  0  0  0  0  0  0
  -10.9866   -3.4049    0.0000 C   0  0  0  0  0  0  0  0  0  0  0  0
  -11.9903   -4.5196    0.0000 C   0  0  0  0  0  0  0  0  0  0  0  0
  -13.4820   -4.3628    0.0000 C   0  0  0  0  0  0  0  0  0  0  0  0
  -14.9738   -4.2060    0.0000 F   0  0  0  0  0  0  0  0  0  0  0  0
  -13.3252   -2.8710    0.0000 F   0  0  0  0  0  0  0  0  0  0  0  0
  -13.6388   -5.8546    0.0000 F   0  0  0  0  0  0  0  0  0  0  0  0
  -11.2403   -5.8186    0.0000 N   0  0  0  0  0  0  0  0  0  0  0  0
   -9.7730   -5.5068    0.0000 N   0  0  0  0  0  0  0  0  0  0  0  0
   -8.6583   -6.5105    0.0000 C   0  0  0  0  0  0  0  0  0  0  0  0
   -7.2317   -6.0469    0.0000 C   0  0  0  0  0  0  0  0  0  0  0  0
   -6.9199   -4.5797    0.0000 O   0  0  0  0  0  0  0  0  0  0  0  0
   -6.1170   -7.0506    0.0000 N   0  0  0  0  0  0  0  0  0  0  0  0
   -4.6904   -6.5871    0.0000 C   0  0  0  0  0  0  0  0  0  0  0  0
   -3.5757   -7.5908    0.0000 C   0  0  0  0  0  0  0  0  0  0  0  0
   -2.1491   -7.1273    0.0000 N   0  0  0  0  0  0  0  0  0  0  0  0
   -1.8373   -5.6601    0.0000 C   0  0  0  0  0  0  0  0  0  0  0  0
   -2.9520   -4.6564    0.0000 C   0  0  0  0  0  0  0  0  0  0  0  0
   -2.6401   -3.1891    0.0000 C   0  0  0  0  0  0  0  0  0  0  0  0
   -3.7548   -2.1855    0.0000 O   0  0  0  0  0  0  0  0  0  0  0  0
   -1.2135   -2.7256    0.0000 C   0  0  0  0  0  0  0  0  0  0  0  0
   -0.0000   -3.6073    0.0000 C   0  0  0  0  0  0  0  0  0  0  0  0
    1.2135   -2.7256    0.0000 N   0  0  0  0  0  0  0  0  0  0  0  0
    2.6401   -3.1891    0.0000 C   0  0  0  0  0  0  0  0  0  0  0  0
    2.9520   -4.6564    0.0000 C   0  0  0  0  0  0  0  0  0  0  0  0
    3.7548   -2.1855    0.0000 C   0  0  0  0  0  0  0  0  0  0  0  0
    0.7500   -1.2990    0.0000 C   0  0  0  0  0  0  0  0  0  0  0  0
    1.5000    0.0000    0.0000 C   0  0  0  0  0  0  0  0  0  0  0  0
    0.7500    1.2990    0.0000 C   0  0  0  0  0  0  0  0  0  0  0  0
   -0.7500    1.2990    0.0000 N   0  0  0  0  0  0  0  0  0  0  0  0
   -1.5000    0.0000    0.0000 C   0  0  0  0  0  0  0  0  0  0  0  0
   -0.7500   -1.2990    0.0000 C   0  0  0  0  0  0  0  0  0  0  0  0
   -4.3786   -5.1199    0.0000 C   0  0  0  0  0  0  0  0  0  0  0  0
  1  2  1  0
  2  3  2  0
  3  4  1  0
  4  5  1  0
  5  6  1  0
  5  7  1  0
  5  8  1  0
  4  9  2  0
  9 10  1  0
 10 11  1  0
 11 12  1  0
 12 13  2  0
 12 14  1  0
 14 15  1  0
 15 16  2  0
 16 17  1  0
 17 18  2  0
 18 19  1  0
 19 20  1  0
 20 21  2  0
 20 22  1  0
 22 23  2  0
 23 24  1  0
 24 25  1  0
 25 26  1  0
 25 27  1  0
 24 28  1  0
 28 29  2  0
 29 30  1  0
 30 31  2  0
 31 32  1  0
 32 33  2  0
 19 34  2  0
 10  2  1  0
 34 15  1  0
 33 22  1  0
 33 28  1  0
M  END
>  <Compound_ID>  (261) 
CHEMBL3952450

>  <Molecule Name>  (261) 
nan

>  <Molecular Weight>  (261) 
470.46

>  <AlogP>  (261) 
4.41

>  <Smiles>  (261) 
Cc1cc(C(F)(F)F)nn1CC(=O)Nc1cncc(C(=O)c2cn(C(C)C)c3ccncc23)c1

>  <Standard Type>  (261) 
IC50

>  <Standard Relation>  (261) 
'='

>  <Standard Units>  (261) 
nM

>  <Standard Value>  (261) 
14.3

>  <Assay ChEMBL ID>  (261) 
CHEMBL3887111

>  <Assay Description>  (261) 
HTRF Assay: Isolated TRK Enzyme assays use the HTRF KinEASE-TK kit (Cisbio Cat#62TK0PEJ) with recombinant His-tagged cytoplasmic domains of each TRK receptor sourced from Invitrogen (see table below). This activity-assay measures the phosphorylation of tyrosine residues within a substrate from the HTRF kit which has been validated by Cisbio for a variety of tyrosine kinases including the TRK receptors.Assay Details: Invitrogen Amino FAC FAC Assay ReactionTarget Cat# acids enzyme ATP TimeTRKA PV3144 aa 441-4 nM 40 uM 35 min (NTRK1) 796 TRKB PV3616 aa 526-1 nM 1.4 uM 40 min (NTRK2) 838 TRKC PV3617 aa 510- 10 nM 15 uM 30 min (NTRK3) 8250.5 mM stock solutions of test compounds are prepared and serially diluted in 100% DMSO. A standard curve using the compound of Example 135 disclosed in WO2005/116035 of 150 uM is also prepared on each test plate. High percentage effect (HPE) is defined by 150 uM.

>  <BAO Format ID>  (261) 
BAO_0000357

>  <BAO Label>  (261) 
single protein format

>  <Assay Organism>  (261) 
None

>  <Target ChEMBL ID>  (261) 
CHEMBL2815

>  <Target Name>  (261) 
Nerve growth factor receptor Trk-A

>  <Target Organism>  (261) 
Homo sapiens

>  <Target Type>  (261) 
SINGLE PROTEIN

>  <Document ChEMBL ID>  (261) 
CHEMBL3886170

>  <Source Description>  (261) 
BindingDB Database

>  <Document Journal>  (261) 
nan

>  <Document Year>  (261) 
2015.0

>  <Active>  (261) 
1.0

>  <bits>  (261) 
<rdkit.DataStructs.cDataStructs.ExplicitBitVect object at 0x00000159F6037370>

>  <Group>  (261) 
G2

$$$$

     RDKit          2D

 30 33  0  0  0  0  0  0  0  0999 V2000
   -6.1577   -6.2752    0.0000 C   0  0  0  0  0  0  0  0  0  0  0  0
   -4.6904   -6.5871    0.0000 C   0  0  0  0  0  0  0  0  0  0  0  0
   -3.2232   -6.8990    0.0000 C   0  0  0  0  0  0  0  0  0  0  0  0
   -5.0023   -8.0543    0.0000 C   0  0  0  0  0  0  0  0  0  0  0  0
   -4.3786   -5.1199    0.0000 N   0  0  0  0  0  0  0  0  0  0  0  0
   -2.9520   -4.6564    0.0000 C   0  0  0  0  0  0  0  0  0  0  0  0
   -1.8373   -5.6601    0.0000 O   0  0  0  0  0  0  0  0  0  0  0  0
   -2.6401   -3.1891    0.0000 N   0  0  0  0  0  0  0  0  0  0  0  0
   -1.2135   -2.7256    0.0000 C   0  0  0  0  0  0  0  0  0  0  0  0
   -0.0000   -3.6073    0.0000 C   0  0  0  0  0  0  0  0  0  0  0  0
    1.2135   -2.7256    0.0000 N   0  0  0  0  0  0  0  0  0  0  0  0
    0.7500   -1.2990    0.0000 C   0  0  0  0  0  0  0  0  0  0  0  0
    1.5000    0.0000    0.0000 C   0  0  0  0  0  0  0  0  0  0  0  0
    0.7500    1.2990    0.0000 C   0  0  0  0  0  0  0  0  0  0  0  0
   -0.7500    1.2990    0.0000 C   0  0  0  0  0  0  0  0  0  0  0  0
   -1.5000    2.5981    0.0000 N   0  0  0  0  0  0  0  0  0  0  0  0
   -2.9918    2.7549    0.0000 C   0  0  0  0  0  0  0  0  0  0  0  0
   -3.3037    4.2221    0.0000 C   0  0  0  0  0  0  0  0  0  0  0  0
   -2.0046    4.9721    0.0000 C   0  0  0  0  0  0  0  0  0  0  0  0
   -0.8899    3.9684    0.0000 C   0  0  0  0  0  0  0  0  0  0  0  0
    0.5773    4.2803    0.0000 C   0  0  0  0  0  0  0  0  0  0  0  0
    1.5810    3.1655    0.0000 C   0  0  0  0  0  0  0  0  0  0  0  0
    3.0482    3.4774    0.0000 C   0  0  0  0  0  0  0  0  0  0  0  0
    4.0519    2.3627    0.0000 F   0  0  0  0  0  0  0  0  0  0  0  0
    3.5118    4.9040    0.0000 C   0  0  0  0  0  0  0  0  0  0  0  0
    2.5081    6.0187    0.0000 C   0  0  0  0  0  0  0  0  0  0  0  0
    1.0409    5.7068    0.0000 C   0  0  0  0  0  0  0  0  0  0  0  0
    0.0372    6.8216    0.0000 F   0  0  0  0  0  0  0  0  0  0  0  0
   -1.5000    0.0000    0.0000 N   0  0  0  0  0  0  0  0  0  0  0  0
   -0.7500   -1.2990    0.0000 N   0  0  0  0  0  0  0  0  0  0  0  0
  1  2  1  0
  2  3  1  0
  2  4  1  0
  2  5  1  0
  5  6  1  0
  6  7  2  0
  6  8  1  0
  8  9  1  0
  9 10  2  0
 10 11  1  0
 11 12  2  0
 12 13  1  0
 13 14  2  0
 14 15  1  0
 15 16  1  0
 16 17  1  0
 17 18  1  0
 18 19  1  0
 19 20  1  0
 20 21  1  6
 21 22  2  0
 22 23  1  0
 23 24  1  0
 23 25  2  0
 25 26  1  0
 26 27  2  0
 27 28  1  0
 15 29  2  0
 29 30  1  0
 30  9  1  0
 30 12  1  0
 20 16  1  0
 27 21  1  0
M  END
>  <Compound_ID>  (262) 
CHEMBL4108618

>  <Molecule Name>  (262) 
nan

>  <Molecular Weight>  (262) 
414.46

>  <AlogP>  (262) 
4.27

>  <Smiles>  (262) 
CC(C)(C)NC(=O)Nc1cnc2ccc(N3CCC[C@@H]3c3cc(F)ccc3F)nn12

>  <Standard Type>  (262) 
IC50

>  <Standard Relation>  (262) 
'='

>  <Standard Units>  (262) 
nM

>  <Standard Value>  (262) 
9.8

>  <Assay ChEMBL ID>  (262) 
CHEMBL3887826

>  <Assay Description>  (262) 
ELISA Assay: An enzyme-linked immunosorbant assay (ELISA) was used to assess TrkA kinase activity in the presence of inhibitors. Immulon 4HBX 384-well microtiter plates (Thermo part #8755) were coated with a 0.025 mg/mL solution of poly (Glu, Ala, Tyr; 6:3:1; Sigma P3899). Various concentrations of test compound, 2.5 nM TrkA (Invitrogen Corp., histidine-tagged recombinant human TrkA, cytoplasmic domain), and 500 uM ATP were incubated for 25 minutes at ambient temperature in the coated plates while shaking. The assay buffer consisted of 25 mM MOPS pH 7.5, 0.005% (v/v) Triton X-100 and 5 mM MgCl2. The reaction mixture was removed from the plate by washing with PBS containing 0.1% (v/v) Tween 20. The phosphorylated reaction product was detected using 0.2 ug/mL of a phosphotyrosine specific monoclonal antibody (clone PY20) conjugated to horseradish peroxidase in conjunction with the TMB Peroxidase Substrate System (KPL).

>  <BAO Format ID>  (262) 
BAO_0000357

>  <BAO Label>  (262) 
single protein format

>  <Assay Organism>  (262) 
None

>  <Target ChEMBL ID>  (262) 
CHEMBL2815

>  <Target Name>  (262) 
Nerve growth factor receptor Trk-A

>  <Target Organism>  (262) 
Homo sapiens

>  <Target Type>  (262) 
SINGLE PROTEIN

>  <Document ChEMBL ID>  (262) 
CHEMBL3886465

>  <Source Description>  (262) 
BindingDB Database

>  <Document Journal>  (262) 
nan

>  <Document Year>  (262) 
2016.0

>  <Active>  (262) 
1.0

>  <bits>  (262) 
<rdkit.DataStructs.cDataStructs.ExplicitBitVect object at 0x00000159F6034350>

>  <Group>  (262) 
G2

$$$$

     RDKit          2D

 35 38  0  0  0  0  0  0  0  0999 V2000
   -2.9520   -4.6564    0.0000 C   0  0  0  0  0  0  0  0  0  0  0  0
   -2.6401   -3.1891    0.0000 C   0  0  0  0  0  0  0  0  0  0  0  0
   -3.7548   -2.1855    0.0000 C   0  0  0  0  0  0  0  0  0  0  0  0
   -5.1814   -2.6490    0.0000 O   0  0  0  0  0  0  0  0  0  0  0  0
   -1.2135   -2.7256    0.0000 N   0  0  0  0  0  0  0  0  0  0  0  0
   -0.0000   -3.6073    0.0000 C   0  0  0  0  0  0  0  0  0  0  0  0
    1.2135   -2.7256    0.0000 C   0  0  0  0  0  0  0  0  0  0  0  0
    2.6401   -3.1891    0.0000 C   0  0  0  0  0  0  0  0  0  0  0  0
    3.7548   -2.1855    0.0000 O   0  0  0  0  0  0  0  0  0  0  0  0
    2.9520   -4.6564    0.0000 C   0  0  0  0  0  0  0  0  0  0  0  0
    1.8373   -5.6601    0.0000 C   0  0  0  0  0  0  0  0  0  0  0  0
    2.1491   -7.1273    0.0000 N   0  0  0  0  0  0  0  0  0  0  0  0
    3.5757   -7.5908    0.0000 C   0  0  0  0  0  0  0  0  0  0  0  0
    4.6904   -6.5871    0.0000 C   0  0  0  0  0  0  0  0  0  0  0  0
    6.1170   -7.0506    0.0000 N   0  0  0  0  0  0  0  0  0  0  0  0
    6.4289   -8.5179    0.0000 C   0  0  0  0  0  0  0  0  0  0  0  0
    5.3142   -9.5216    0.0000 O   0  0  0  0  0  0  0  0  0  0  0  0
    7.8555   -8.9814    0.0000 C   0  0  0  0  0  0  0  0  0  0  0  0
    8.1673  -10.4486    0.0000 C   0  0  0  0  0  0  0  0  0  0  0  0
    7.0526  -11.4523    0.0000 C   0  0  0  0  0  0  0  0  0  0  0  0
    7.3645  -12.9195    0.0000 C   0  0  0  0  0  0  0  0  0  0  0  0
    8.7911  -13.3831    0.0000 C   0  0  0  0  0  0  0  0  0  0  0  0
    9.9058  -12.3794    0.0000 C   0  0  0  0  0  0  0  0  0  0  0  0
   11.3324  -12.8429    0.0000 C   0  0  0  0  0  0  0  0  0  0  0  0
   12.7590  -13.3064    0.0000 F   0  0  0  0  0  0  0  0  0  0  0  0
   10.8688  -14.2695    0.0000 F   0  0  0  0  0  0  0  0  0  0  0  0
   11.7959  -11.4163    0.0000 F   0  0  0  0  0  0  0  0  0  0  0  0
    9.5939  -10.9121    0.0000 C   0  0  0  0  0  0  0  0  0  0  0  0
    4.3786   -5.1199    0.0000 C   0  0  0  0  0  0  0  0  0  0  0  0
    0.7500   -1.2990    0.0000 C   0  0  0  0  0  0  0  0  0  0  0  0
    1.5000    0.0000    0.0000 C   0  0  0  0  0  0  0  0  0  0  0  0
    0.7500    1.2990    0.0000 N   0  0  0  0  0  0  0  0  0  0  0  0
   -0.7500    1.2990    0.0000 C   0  0  0  0  0  0  0  0  0  0  0  0
   -1.5000    0.0000    0.0000 N   0  0  0  0  0  0  0  0  0  0  0  0
   -0.7500   -1.2990    0.0000 C   0  0  0  0  0  0  0  0  0  0  0  0
  2  1  1  1
  2  3  1  0
  3  4  1  0
  2  5  1  0
  5  6  1  0
  6  7  2  0
  7  8  1  0
  8  9  2  0
  8 10  1  0
 10 11  2  0
 11 12  1  0
 12 13  2  0
 13 14  1  0
 14 15  1  0
 15 16  1  0
 16 17  2  0
 16 18  1  0
 18 19  1  0
 19 20  2  0
 20 21  1  0
 21 22  2  0
 22 23  1  0
 23 24  1  0
 24 25  1  0
 24 26  1  0
 24 27  1  0
 23 28  2  0
 14 29  2  0
  7 30  1  0
 30 31  2  0
 31 32  1  0
 32 33  2  0
 33 34  1  0
 34 35  2  0
 35  5  1  0
 29 10  1  0
 35 30  1  0
 28 19  1  0
M  END
>  <Compound_ID>  (263) 
CHEMBL3661597

>  <Molecule Name>  (263) 
nan

>  <Molecular Weight>  (263) 
483.45

>  <AlogP>  (263) 
3.81

>  <Smiles>  (263) 
C[C@@H](CO)n1cc(C(=O)c2cncc(NC(=O)Cc3cccc(C(F)(F)F)c3)c2)c2cncnc21

>  <Standard Type>  (263) 
IC50

>  <Standard Relation>  (263) 
'='

>  <Standard Units>  (263) 
nM

>  <Standard Value>  (263) 
4.24

>  <Assay ChEMBL ID>  (263) 
CHEMBL3887033

>  <Assay Description>  (263) 
Enzyme Assay: Isolated TRK Enzyme assays use the HTRF KinEASE-TK kit (Cisbio Cat# 62TK0PEJ) with recombinant His-tagged cytoplasmic domains of each TRK receptor sourced from Invitrogen (see table below). This activity-assay measures the phosphorylation of tyrosine residues within a substrate from the HTRF kit which has been validated by Cisbio for a variety of tyrosine kinases including the TRK receptors. Assay details: Target:TRKA; Invitrogen Cat# PV3144; Amino acids:aa 441-796; FAC enzyme:4nM; FAC ATP:40uM; Assay Reaction Time:35min.

>  <BAO Format ID>  (263) 
BAO_0000357

>  <BAO Label>  (263) 
single protein format

>  <Assay Organism>  (263) 
None

>  <Target ChEMBL ID>  (263) 
CHEMBL2815

>  <Target Name>  (263) 
Nerve growth factor receptor Trk-A

>  <Target Organism>  (263) 
Homo sapiens

>  <Target Type>  (263) 
SINGLE PROTEIN

>  <Document ChEMBL ID>  (263) 
CHEMBL3639348

>  <Source Description>  (263) 
BindingDB Database

>  <Document Journal>  (263) 
nan

>  <Document Year>  (263) 
2014.0

>  <Active>  (263) 
1.0

>  <bits>  (263) 
<rdkit.DataStructs.cDataStructs.ExplicitBitVect object at 0x00000159F6034C80>

>  <Group>  (263) 
G2

$$$$

     RDKit          2D

 34 38  0  0  0  0  0  0  0  0999 V2000
   -2.9520   -4.6564    0.0000 C   0  0  0  0  0  0  0  0  0  0  0  0
   -2.6401   -3.1891    0.0000 C   0  0  0  0  0  0  0  0  0  0  0  0
   -3.7548   -2.1855    0.0000 C   0  0  0  0  0  0  0  0  0  0  0  0
   -1.2135   -2.7256    0.0000 N   0  0  0  0  0  0  0  0  0  0  0  0
   -0.0000   -3.6073    0.0000 C   0  0  0  0  0  0  0  0  0  0  0  0
    1.2135   -2.7256    0.0000 C   0  0  0  0  0  0  0  0  0  0  0  0
    2.6401   -3.1891    0.0000 C   0  0  0  0  0  0  0  0  0  0  0  0
    3.7548   -2.1855    0.0000 O   0  0  0  0  0  0  0  0  0  0  0  0
    2.9520   -4.6564    0.0000 C   0  0  0  0  0  0  0  0  0  0  0  0
    1.8373   -5.6601    0.0000 C   0  0  0  0  0  0  0  0  0  0  0  0
    2.1491   -7.1273    0.0000 N   0  0  0  0  0  0  0  0  0  0  0  0
    3.5757   -7.5908    0.0000 C   0  0  0  0  0  0  0  0  0  0  0  0
    4.6904   -6.5871    0.0000 C   0  0  0  0  0  0  0  0  0  0  0  0
    6.1170   -7.0506    0.0000 N   0  0  0  0  0  0  0  0  0  0  0  0
    6.4289   -8.5179    0.0000 C   0  0  0  0  0  0  0  0  0  0  0  0
    5.3142   -9.5216    0.0000 O   0  0  0  0  0  0  0  0  0  0  0  0
    7.8555   -8.9814    0.0000 C   0  0  0  0  0  0  0  0  0  0  0  0
    8.1673  -10.4486    0.0000 C   0  0  0  0  0  0  0  0  0  0  0  0
    7.1636  -11.5633    0.0000 C   0  0  0  0  0  0  0  0  0  0  0  0
    7.9136  -12.8624    0.0000 N   0  0  0  0  0  0  0  0  0  0  0  0
    9.3809  -12.5505    0.0000 C   0  0  0  0  0  0  0  0  0  0  0  0
   10.5944  -13.4322    0.0000 C   0  0  0  0  0  0  0  0  0  0  0  0
   11.9647  -12.8221    0.0000 C   0  0  0  0  0  0  0  0  0  0  0  0
   12.1215  -11.3303    0.0000 C   0  0  0  0  0  0  0  0  0  0  0  0
   13.4918  -10.7202    0.0000 Cl  0  0  0  0  0  0  0  0  0  0  0  0
   10.9080  -10.4486    0.0000 C   0  0  0  0  0  0  0  0  0  0  0  0
    9.5377  -11.0587    0.0000 C   0  0  0  0  0  0  0  0  0  0  0  0
    4.3786   -5.1199    0.0000 C   0  0  0  0  0  0  0  0  0  0  0  0
    0.7500   -1.2990    0.0000 C   0  0  0  0  0  0  0  0  0  0  0  0
    1.5000    0.0000    0.0000 C   0  0  0  0  0  0  0  0  0  0  0  0
    0.7500    1.2990    0.0000 N   0  0  0  0  0  0  0  0  0  0  0  0
   -0.7500    1.2990    0.0000 C   0  0  0  0  0  0  0  0  0  0  0  0
   -1.5000    0.0000    0.0000 N   0  0  0  0  0  0  0  0  0  0  0  0
   -0.7500   -1.2990    0.0000 C   0  0  0  0  0  0  0  0  0  0  0  0
  1  2  1  0
  2  3  1  0
  2  4  1  0
  4  5  1  0
  5  6  2  0
  6  7  1  0
  7  8  2  0
  7  9  1  0
  9 10  2  0
 10 11  1  0
 11 12  2  0
 12 13  1  0
 13 14  1  0
 14 15  1  0
 15 16  2  0
 15 17  1  0
 17 18  1  0
 18 19  2  0
 19 20  1  0
 20 21  1  0
 21 22  2  0
 22 23  1  0
 23 24  2  0
 24 25  1  0
 24 26  1  0
 26 27  2  0
 13 28  2  0
  6 29  1  0
 29 30  2  0
 30 31  1  0
 31 32  2  0
 32 33  1  0
 33 34  2  0
 34  4  1  0
 28  9  1  0
 34 29  1  0
 27 18  1  0
 27 21  1  0
M  END
>  <Compound_ID>  (264) 
CHEMBL3661533

>  <Molecule Name>  (264) 
nan

>  <Molecular Weight>  (264) 
472.94

>  <AlogP>  (264) 
4.95

>  <Smiles>  (264) 
CC(C)n1cc(C(=O)c2cncc(NC(=O)Cc3c[nH]c4ccc(Cl)cc34)c2)c2cncnc21

>  <Standard Type>  (264) 
IC50

>  <Standard Relation>  (264) 
'='

>  <Standard Units>  (264) 
nM

>  <Standard Value>  (264) 
65.7

>  <Assay ChEMBL ID>  (264) 
CHEMBL3887033

>  <Assay Description>  (264) 
Enzyme Assay: Isolated TRK Enzyme assays use the HTRF KinEASE-TK kit (Cisbio Cat# 62TK0PEJ) with recombinant His-tagged cytoplasmic domains of each TRK receptor sourced from Invitrogen (see table below). This activity-assay measures the phosphorylation of tyrosine residues within a substrate from the HTRF kit which has been validated by Cisbio for a variety of tyrosine kinases including the TRK receptors. Assay details: Target:TRKA; Invitrogen Cat# PV3144; Amino acids:aa 441-796; FAC enzyme:4nM; FAC ATP:40uM; Assay Reaction Time:35min.

>  <BAO Format ID>  (264) 
BAO_0000357

>  <BAO Label>  (264) 
single protein format

>  <Assay Organism>  (264) 
None

>  <Target ChEMBL ID>  (264) 
CHEMBL2815

>  <Target Name>  (264) 
Nerve growth factor receptor Trk-A

>  <Target Organism>  (264) 
Homo sapiens

>  <Target Type>  (264) 
SINGLE PROTEIN

>  <Document ChEMBL ID>  (264) 
CHEMBL3639348

>  <Source Description>  (264) 
BindingDB Database

>  <Document Journal>  (264) 
nan

>  <Document Year>  (264) 
2014.0

>  <Active>  (264) 
1.0

>  <bits>  (264) 
<rdkit.DataStructs.cDataStructs.ExplicitBitVect object at 0x00000159F6036500>

>  <Group>  (264) 
G2

$$$$

     RDKit          2D

 28 31  0  0  0  0  0  0  0  0999 V2000
   -5.4933   -4.1162    0.0000 O   0  0  0  0  0  0  0  0  0  0  0  0
   -4.3786   -5.1199    0.0000 C   0  0  0  0  0  0  0  0  0  0  0  0
   -4.6904   -6.5871    0.0000 O   0  0  0  0  0  0  0  0  0  0  0  0
   -2.9520   -4.6564    0.0000 C   0  0  0  0  0  0  0  0  0  0  0  0
   -1.8373   -5.6601    0.0000 O   0  0  0  0  0  0  0  0  0  0  0  0
   -2.6401   -3.1891    0.0000 N   0  0  0  0  0  0  0  0  0  0  0  0
   -1.2135   -2.7256    0.0000 C   0  0  0  0  0  0  0  0  0  0  0  0
   -0.0000   -3.6073    0.0000 C   0  0  0  0  0  0  0  0  0  0  0  0
    1.2135   -2.7256    0.0000 N   0  0  0  0  0  0  0  0  0  0  0  0
    0.7500   -1.2990    0.0000 N   0  0  0  0  0  0  0  0  0  0  0  0
    1.5000    0.0000    0.0000 C   0  0  0  0  0  0  0  0  0  0  0  0
    0.7500    1.2990    0.0000 C   0  0  0  0  0  0  0  0  0  0  0  0
   -0.7500    1.2990    0.0000 C   0  0  0  0  0  0  0  0  0  0  0  0
   -1.5000    2.5981    0.0000 N   0  0  0  0  0  0  0  0  0  0  0  0
   -2.9918    2.7549    0.0000 C   0  0  0  0  0  0  0  0  0  0  0  0
   -3.3037    4.2221    0.0000 C   0  0  0  0  0  0  0  0  0  0  0  0
   -2.0046    4.9721    0.0000 C   0  0  0  0  0  0  0  0  0  0  0  0
   -0.8899    3.9684    0.0000 C   0  0  0  0  0  0  0  0  0  0  0  0
    0.5773    4.2803    0.0000 C   0  0  0  0  0  0  0  0  0  0  0  0
    1.5810    3.1655    0.0000 C   0  0  0  0  0  0  0  0  0  0  0  0
    3.0482    3.4774    0.0000 C   0  0  0  0  0  0  0  0  0  0  0  0
    4.0519    2.3627    0.0000 F   0  0  0  0  0  0  0  0  0  0  0  0
    3.5118    4.9040    0.0000 C   0  0  0  0  0  0  0  0  0  0  0  0
    2.5081    6.0187    0.0000 C   0  0  0  0  0  0  0  0  0  0  0  0
    1.0409    5.7068    0.0000 C   0  0  0  0  0  0  0  0  0  0  0  0
    0.0372    6.8216    0.0000 F   0  0  0  0  0  0  0  0  0  0  0  0
   -1.5000    0.0000    0.0000 N   0  0  0  0  0  0  0  0  0  0  0  0
   -0.7500   -1.2990    0.0000 C   0  0  0  0  0  0  0  0  0  0  0  0
  1  2  2  0
  2  3  1  0
  2  4  1  0
  4  5  2  0
  4  6  1  0
  6  7  1  0
  7  8  1  0
  8  9  2  0
  9 10  1  0
 10 11  1  0
 11 12  2  0
 12 13  1  0
 13 14  1  0
 14 15  1  0
 15 16  1  0
 16 17  1  0
 17 18  1  0
 18 19  1  6
 19 20  2  0
 20 21  1  0
 21 22  1  0
 21 23  2  0
 23 24  1  0
 24 25  2  0
 25 26  1  0
 13 27  2  0
 27 28  1  0
 28  7  2  0
 28 10  1  0
 18 14  1  0
 25 19  1  0
M  END
>  <Compound_ID>  (265) 
CHEMBL4108051

>  <Molecule Name>  (265) 
nan

>  <Molecular Weight>  (265) 
387.35

>  <AlogP>  (265) 
2.37

>  <Smiles>  (265) 
O=C(O)C(=O)Nc1cnn2ccc(N3CCC[C@@H]3c3cc(F)ccc3F)nc12

>  <Standard Type>  (265) 
IC50

>  <Standard Relation>  (265) 
'='

>  <Standard Units>  (265) 
nM

>  <Standard Value>  (265) 
4.7

>  <Assay ChEMBL ID>  (265) 
CHEMBL3887076

>  <Assay Description>  (265) 
ELISA Assay: An enzyme-linked immunosorbant assay (ELISA) was used to assess TrkA kinase activity in the presence of inhibitors. Immulon 4HBX 384-well microtiter plates (Thermo part #8755) were coated with a 0.025 mg/mL solution of poly (Glu, Ala, Tyr; 6:3:1; Sigma P3899). Various concentrations of test compound, 2.5 nM TrkA (Invitrogen Corp., histidine-tagged recombinant human TrkA, cytoplasmic domain), and 500 uM ATP were incubated for 25 minutes at ambient temperature in the coated plates while shaking. The assay buffer consisted of 25 mM MOPS pH 7.5, 0.005% (v/v) Triton X-100 and 5 mM MgCl2. The reaction mixture was removed from the plate by washing with PBS containing 0.1% (v/v) Tween 20. The phosphorylated reaction product was detected using 0.2 ug/mL of a phosphotyrosine specific monoclonal antibody (clone PY20) conjugated to horseradish peroxidase in conjunction with the TMB Peroxidase Substrate System (KPL).

>  <BAO Format ID>  (265) 
BAO_0000357

>  <BAO Label>  (265) 
single protein format

>  <Assay Organism>  (265) 
None

>  <Target ChEMBL ID>  (265) 
CHEMBL2815

>  <Target Name>  (265) 
Nerve growth factor receptor Trk-A

>  <Target Organism>  (265) 
Homo sapiens

>  <Target Type>  (265) 
SINGLE PROTEIN

>  <Document ChEMBL ID>  (265) 
CHEMBL3886151

>  <Source Description>  (265) 
BindingDB Database

>  <Document Journal>  (265) 
nan

>  <Document Year>  (265) 
2014.0

>  <Active>  (265) 
1.0

>  <bits>  (265) 
<rdkit.DataStructs.cDataStructs.ExplicitBitVect object at 0x00000159F6034580>

>  <Group>  (265) 
G2

$$$$

     RDKit          2D

 34 37  0  0  0  0  0  0  0  0999 V2000
   -3.2128  -11.9292    0.0000 C   0  0  0  0  0  0  0  0  0  0  0  0
   -1.9137  -12.6792    0.0000 C   0  0  0  0  0  0  0  0  0  0  0  0
   -1.7570  -14.1710    0.0000 C   0  0  0  0  0  0  0  0  0  0  0  0
   -0.2897  -14.4829    0.0000 C   0  0  0  0  0  0  0  0  0  0  0  0
    0.3204  -15.8532    0.0000 C   0  0  0  0  0  0  0  0  0  0  0  0
    0.9305  -17.2235    0.0000 F   0  0  0  0  0  0  0  0  0  0  0  0
   -1.0499  -16.4633    0.0000 F   0  0  0  0  0  0  0  0  0  0  0  0
    1.6907  -15.2431    0.0000 F   0  0  0  0  0  0  0  0  0  0  0  0
    0.4603  -13.1838    0.0000 N   0  0  0  0  0  0  0  0  0  0  0  0
   -0.5434  -12.0691    0.0000 N   0  0  0  0  0  0  0  0  0  0  0  0
   -0.2316  -10.6019    0.0000 C   0  0  0  0  0  0  0  0  0  0  0  0
   -1.3463   -9.5982    0.0000 C   0  0  0  0  0  0  0  0  0  0  0  0
   -2.7729  -10.0617    0.0000 O   0  0  0  0  0  0  0  0  0  0  0  0
   -1.0344   -8.1310    0.0000 N   0  0  0  0  0  0  0  0  0  0  0  0
   -2.1491   -7.1273    0.0000 C   0  0  0  0  0  0  0  0  0  0  0  0
   -1.8373   -5.6601    0.0000 C   0  0  0  0  0  0  0  0  0  0  0  0
   -2.9520   -4.6564    0.0000 C   0  0  0  0  0  0  0  0  0  0  0  0
   -2.6401   -3.1891    0.0000 C   0  0  0  0  0  0  0  0  0  0  0  0
   -3.7548   -2.1855    0.0000 O   0  0  0  0  0  0  0  0  0  0  0  0
   -1.2135   -2.7256    0.0000 C   0  0  0  0  0  0  0  0  0  0  0  0
   -0.0000   -3.6073    0.0000 C   0  0  0  0  0  0  0  0  0  0  0  0
    1.2135   -2.7256    0.0000 N   0  0  0  0  0  0  0  0  0  0  0  0
    2.6401   -3.1891    0.0000 C   0  0  0  0  0  0  0  0  0  0  0  0
    2.9520   -4.6564    0.0000 C   0  0  0  0  0  0  0  0  0  0  0  0
    4.3786   -5.1199    0.0000 O   0  0  0  0  0  0  0  0  0  0  0  0
    0.7500   -1.2990    0.0000 C   0  0  0  0  0  0  0  0  0  0  0  0
    1.5000    0.0000    0.0000 C   0  0  0  0  0  0  0  0  0  0  0  0
    0.7500    1.2990    0.0000 C   0  0  0  0  0  0  0  0  0  0  0  0
   -0.7500    1.2990    0.0000 N   0  0  0  0  0  0  0  0  0  0  0  0
   -1.5000    0.0000    0.0000 C   0  0  0  0  0  0  0  0  0  0  0  0
   -0.7500   -1.2990    0.0000 C   0  0  0  0  0  0  0  0  0  0  0  0
   -4.3786   -5.1199    0.0000 C   0  0  0  0  0  0  0  0  0  0  0  0
   -4.6904   -6.5871    0.0000 C   0  0  0  0  0  0  0  0  0  0  0  0
   -3.5757   -7.5908    0.0000 N   0  0  0  0  0  0  0  0  0  0  0  0
  1  2  1  0
  2  3  2  0
  3  4  1  0
  4  5  1  0
  5  6  1  0
  5  7  1  0
  5  8  1  0
  4  9  2  0
  9 10  1  0
 10 11  1  0
 11 12  1  0
 12 13  2  0
 12 14  1  0
 14 15  1  0
 15 16  2  0
 16 17  1  0
 17 18  1  0
 18 19  2  0
 18 20  1  0
 20 21  2  0
 21 22  1  0
 22 23  1  0
 23 24  1  0
 24 25  1  0
 22 26  1  0
 26 27  2  0
 27 28  1  0
 28 29  2  0
 29 30  1  0
 30 31  2  0
 17 32  2  0
 32 33  1  0
 33 34  2  0
 10  2  1  0
 34 15  1  0
 31 20  1  0
 31 26  1  0
M  END
>  <Compound_ID>  (266) 
CHEMBL3978414

>  <Molecule Name>  (266) 
nan

>  <Molecular Weight>  (266) 
472.43

>  <AlogP>  (266) 
2.82

>  <Smiles>  (266) 
Cc1cc(C(F)(F)F)nn1CC(=O)Nc1cc(C(=O)c2cn(CCO)c3ccncc23)ccn1

>  <Standard Type>  (266) 
IC50

>  <Standard Relation>  (266) 
'='

>  <Standard Units>  (266) 
nM

>  <Standard Value>  (266) 
83.9

>  <Assay ChEMBL ID>  (266) 
CHEMBL3887111

>  <Assay Description>  (266) 
HTRF Assay: Isolated TRK Enzyme assays use the HTRF KinEASE-TK kit (Cisbio Cat#62TK0PEJ) with recombinant His-tagged cytoplasmic domains of each TRK receptor sourced from Invitrogen (see table below). This activity-assay measures the phosphorylation of tyrosine residues within a substrate from the HTRF kit which has been validated by Cisbio for a variety of tyrosine kinases including the TRK receptors.Assay Details: Invitrogen Amino FAC FAC Assay ReactionTarget Cat# acids enzyme ATP TimeTRKA PV3144 aa 441-4 nM 40 uM 35 min (NTRK1) 796 TRKB PV3616 aa 526-1 nM 1.4 uM 40 min (NTRK2) 838 TRKC PV3617 aa 510- 10 nM 15 uM 30 min (NTRK3) 8250.5 mM stock solutions of test compounds are prepared and serially diluted in 100% DMSO. A standard curve using the compound of Example 135 disclosed in WO2005/116035 of 150 uM is also prepared on each test plate. High percentage effect (HPE) is defined by 150 uM.

>  <BAO Format ID>  (266) 
BAO_0000357

>  <BAO Label>  (266) 
single protein format

>  <Assay Organism>  (266) 
None

>  <Target ChEMBL ID>  (266) 
CHEMBL2815

>  <Target Name>  (266) 
Nerve growth factor receptor Trk-A

>  <Target Organism>  (266) 
Homo sapiens

>  <Target Type>  (266) 
SINGLE PROTEIN

>  <Document ChEMBL ID>  (266) 
CHEMBL3886170

>  <Source Description>  (266) 
BindingDB Database

>  <Document Journal>  (266) 
nan

>  <Document Year>  (266) 
2015.0

>  <Active>  (266) 
1.0

>  <bits>  (266) 
<rdkit.DataStructs.cDataStructs.ExplicitBitVect object at 0x00000159F6034510>

>  <Group>  (266) 
G2

$$$$

     RDKit          2D

 53 58  0  0  0  0  0  0  0  0999 V2000
  -12.9041   -9.3825    0.0000 C   0  0  0  0  0  0  0  0  0  0  0  0
  -11.7894   -8.3788    0.0000 C   0  0  0  0  0  0  0  0  0  0  0  0
  -10.3628   -8.8423    0.0000 N   0  0  0  0  0  0  0  0  0  0  0  0
  -10.0510  -10.3095    0.0000 C   0  0  0  0  0  0  0  0  0  0  0  0
  -11.1657  -11.3132    0.0000 C   0  0  0  0  0  0  0  0  0  0  0  0
   -9.2481   -7.8386    0.0000 C   0  0  0  0  0  0  0  0  0  0  0  0
   -7.8215   -8.3021    0.0000 C   0  0  0  0  0  0  0  0  0  0  0  0
   -6.7068   -7.2984    0.0000 N   0  0  0  0  0  0  0  0  0  0  0  0
   -5.2802   -7.7620    0.0000 C   0  0  0  0  0  0  0  0  0  0  0  0
   -4.9684   -9.2292    0.0000 O   0  0  0  0  0  0  0  0  0  0  0  0
   -4.1655   -6.7583    0.0000 C   0  0  0  0  0  0  0  0  0  0  0  0
   -2.6983   -7.0701    0.0000 C   0  0  0  0  0  0  0  0  0  0  0  0
   -1.9483   -5.7711    0.0000 N   0  0  0  0  0  0  0  0  0  0  0  0
   -2.9520   -4.6564    0.0000 C   0  0  0  0  0  0  0  0  0  0  0  0
   -2.6401   -3.1891    0.0000 C   0  0  0  0  0  0  0  0  0  0  0  0
   -1.2135   -2.7256    0.0000 C   0  0  0  0  0  0  0  0  0  0  0  0
   -0.0000   -3.6073    0.0000 C   0  0  0  0  0  0  0  0  0  0  0  0
    0.0000   -5.1073    0.0000 O   0  0  0  0  0  0  0  0  0  0  0  0
    1.2135   -2.7256    0.0000 N   0  0  0  0  0  0  0  0  0  0  0  0
    0.7500   -1.2990    0.0000 C   0  0  0  0  0  0  0  0  0  0  0  0
    1.5000    0.0000    0.0000 C   0  0  0  0  0  0  0  0  0  0  0  0
    0.7500    1.2990    0.0000 C   0  0  0  0  0  0  0  0  0  0  0  0
    1.5000    2.5981    0.0000 N   0  0  0  0  0  0  0  0  0  0  0  0
    3.0000    2.5981    0.0000 C   0  0  0  0  0  0  0  0  0  0  0  0
    3.7500    1.2990    0.0000 C   0  0  0  0  0  0  0  0  0  0  0  0
    5.2500    1.2990    0.0000 C   0  0  0  0  0  0  0  0  0  0  0  0
    6.0000    2.5981    0.0000 C   0  0  0  0  0  0  0  0  0  0  0  0
    5.2500    3.8971    0.0000 C   0  0  0  0  0  0  0  0  0  0  0  0
    6.0000    5.1962    0.0000 N   0  0  0  0  0  0  0  0  0  0  0  0
    7.5000    5.1962    0.0000 C   0  0  0  0  0  0  0  0  0  0  0  0
    8.2500    3.8971    0.0000 O   0  0  0  0  0  0  0  0  0  0  0  0
    8.2500    6.4952    0.0000 C   0  0  0  0  0  0  0  0  0  0  0  0
    9.7500    6.4952    0.0000 C   0  0  0  0  0  0  0  0  0  0  0  0
   10.5000    7.7942    0.0000 C   0  0  0  0  0  0  0  0  0  0  0  0
   12.0000    7.7942    0.0000 N   0  0  0  0  0  0  0  0  0  0  0  0
   12.7500    6.4952    0.0000 C   0  0  0  0  0  0  0  0  0  0  0  0
   14.2500    6.4952    0.0000 C   0  0  0  0  0  0  0  0  0  0  0  0
   15.0000    7.7942    0.0000 N   0  0  0  0  0  0  0  0  0  0  0  0
   16.5000    7.7942    0.0000 C   0  0  0  0  0  0  0  0  0  0  0  0
   14.2500    9.0933    0.0000 C   0  0  0  0  0  0  0  0  0  0  0  0
   12.7500    9.0933    0.0000 C   0  0  0  0  0  0  0  0  0  0  0  0
    9.7500    9.0933    0.0000 C   0  0  0  0  0  0  0  0  0  0  0  0
    8.2500    9.0933    0.0000 C   0  0  0  0  0  0  0  0  0  0  0  0
    7.5000   10.3923    0.0000 C   0  0  0  0  0  0  0  0  0  0  0  0
    6.7500   11.6913    0.0000 F   0  0  0  0  0  0  0  0  0  0  0  0
    8.7990   11.1423    0.0000 F   0  0  0  0  0  0  0  0  0  0  0  0
    6.2010    9.6423    0.0000 F   0  0  0  0  0  0  0  0  0  0  0  0
    7.5000    7.7942    0.0000 C   0  0  0  0  0  0  0  0  0  0  0  0
    3.7500    3.8971    0.0000 C   0  0  0  0  0  0  0  0  0  0  0  0
   -0.7500    1.2990    0.0000 C   0  0  0  0  0  0  0  0  0  0  0  0
   -1.5000    0.0000    0.0000 C   0  0  0  0  0  0  0  0  0  0  0  0
   -0.7500   -1.2990    0.0000 C   0  0  0  0  0  0  0  0  0  0  0  0
   -4.3223   -5.2665    0.0000 C   0  0  0  0  0  0  0  0  0  0  0  0
  1  2  1  0
  2  3  1  0
  3  4  1  0
  4  5  1  0
  3  6  1  0
  6  7  1  0
  7  8  1  0
  8  9  1  0
  9 10  2  0
  9 11  1  0
 11 12  2  0
 12 13  1  0
 13 14  1  0
 14 15  1  0
 15 16  2  0
 16 17  1  0
 17 18  2  0
 17 19  1  0
 19 20  1  0
 20 21  2  0
 21 22  1  0
 22 23  1  0
 23 24  1  0
 24 25  2  0
 25 26  1  0
 26 27  2  0
 27 28  1  0
 28 29  1  0
 29 30  1  0
 30 31  2  0
 30 32  1  0
 32 33  2  0
 33 34  1  0
 34 35  1  0
 35 36  1  0
 36 37  1  0
 37 38  1  0
 38 39  1  0
 38 40  1  0
 40 41  1  0
 34 42  2  0
 42 43  1  0
 43 44  1  0
 44 45  1  0
 44 46  1  0
 44 47  1  0
 43 48  2  0
 28 49  2  0
 22 50  2  0
 50 51  1  0
 51 52  2  0
 14 53  2  0
 53 11  1  0
 52 16  1  0
 52 20  1  0
 49 24  1  0
 48 32  1  0
 41 35  1  0
M  END
>  <Compound_ID>  (267) 
CHEMBL2037221

>  <Molecule Name>  (267) 
nan

>  <Molecular Weight>  (267) 
728.82

>  <AlogP>  (267) 
6.35

>  <Smiles>  (267) 
CCN(CC)CCNC(=O)c1c[nH]c(/C=C2\C(=O)Nc3cc(Nc4cccc(NC(=O)c5cc(N6CCN(C)CC6)cc(C(F)(F)F)c5)c4)ccc32)c1

>  <Standard Type>  (267) 
IC50

>  <Standard Relation>  (267) 
'='

>  <Standard Units>  (267) 
nM

>  <Standard Value>  (267) 
4.0

>  <Assay ChEMBL ID>  (267) 
CHEMBL2038860

>  <Assay Description>  (267) 
Inhibition of TRKA by HTRF assay

>  <BAO Format ID>  (267) 
BAO_0000357

>  <BAO Label>  (267) 
single protein format

>  <Assay Organism>  (267) 
None

>  <Target ChEMBL ID>  (267) 
CHEMBL2815

>  <Target Name>  (267) 
Nerve growth factor receptor Trk-A

>  <Target Organism>  (267) 
Homo sapiens

>  <Target Type>  (267) 
SINGLE PROTEIN

>  <Document ChEMBL ID>  (267) 
CHEMBL2034853

>  <Source Description>  (267) 
Scientific Literature

>  <Document Journal>  (267) 
ACS Med Chem Lett

>  <Document Year>  (267) 
2012.0

>  <Active>  (267) 
1.0

>  <bits>  (267) 
<rdkit.DataStructs.cDataStructs.ExplicitBitVect object at 0x00000159F6037760>

>  <Group>  (267) 
G2

$$$$

     RDKit          2D

 35 38  0  0  0  0  0  0  0  0999 V2000
   -2.9520   -4.6564    0.0000 C   0  0  0  0  0  0  0  0  0  0  0  0
   -2.6401   -3.1891    0.0000 C   0  0  0  0  0  0  0  0  0  0  0  0
   -3.7548   -2.1855    0.0000 C   0  0  0  0  0  0  0  0  0  0  0  0
   -5.1814   -2.6490    0.0000 O   0  0  0  0  0  0  0  0  0  0  0  0
   -1.2135   -2.7256    0.0000 N   0  0  0  0  0  0  0  0  0  0  0  0
   -0.0000   -3.6073    0.0000 C   0  0  0  0  0  0  0  0  0  0  0  0
    1.2135   -2.7256    0.0000 C   0  0  0  0  0  0  0  0  0  0  0  0
    2.6401   -3.1891    0.0000 C   0  0  0  0  0  0  0  0  0  0  0  0
    3.7548   -2.1855    0.0000 O   0  0  0  0  0  0  0  0  0  0  0  0
    2.9520   -4.6564    0.0000 C   0  0  0  0  0  0  0  0  0  0  0  0
    1.8373   -5.6601    0.0000 C   0  0  0  0  0  0  0  0  0  0  0  0
    2.1491   -7.1273    0.0000 N   0  0  0  0  0  0  0  0  0  0  0  0
    3.5757   -7.5908    0.0000 C   0  0  0  0  0  0  0  0  0  0  0  0
    4.6904   -6.5871    0.0000 C   0  0  0  0  0  0  0  0  0  0  0  0
    6.1170   -7.0506    0.0000 N   0  0  0  0  0  0  0  0  0  0  0  0
    6.4289   -8.5179    0.0000 C   0  0  0  0  0  0  0  0  0  0  0  0
    5.3142   -9.5216    0.0000 O   0  0  0  0  0  0  0  0  0  0  0  0
    7.8555   -8.9814    0.0000 C   0  0  0  0  0  0  0  0  0  0  0  0
    8.1673  -10.4486    0.0000 C   0  0  0  0  0  0  0  0  0  0  0  0
    7.0526  -11.4523    0.0000 C   0  0  0  0  0  0  0  0  0  0  0  0
    7.3645  -12.9195    0.0000 C   0  0  0  0  0  0  0  0  0  0  0  0
    8.7911  -13.3831    0.0000 C   0  0  0  0  0  0  0  0  0  0  0  0
    9.9058  -12.3794    0.0000 C   0  0  0  0  0  0  0  0  0  0  0  0
   11.3324  -12.8429    0.0000 C   0  0  0  0  0  0  0  0  0  0  0  0
   12.7590  -13.3064    0.0000 F   0  0  0  0  0  0  0  0  0  0  0  0
   10.8688  -14.2695    0.0000 F   0  0  0  0  0  0  0  0  0  0  0  0
   11.7959  -11.4163    0.0000 F   0  0  0  0  0  0  0  0  0  0  0  0
    9.5939  -10.9121    0.0000 C   0  0  0  0  0  0  0  0  0  0  0  0
    4.3786   -5.1199    0.0000 C   0  0  0  0  0  0  0  0  0  0  0  0
    0.7500   -1.2990    0.0000 C   0  0  0  0  0  0  0  0  0  0  0  0
    1.5000    0.0000    0.0000 C   0  0  0  0  0  0  0  0  0  0  0  0
    0.7500    1.2990    0.0000 N   0  0  0  0  0  0  0  0  0  0  0  0
   -0.7500    1.2990    0.0000 C   0  0  0  0  0  0  0  0  0  0  0  0
   -1.5000    0.0000    0.0000 C   0  0  0  0  0  0  0  0  0  0  0  0
   -0.7500   -1.2990    0.0000 C   0  0  0  0  0  0  0  0  0  0  0  0
  1  2  1  0
  2  3  1  0
  3  4  1  0
  2  5  1  0
  5  6  1  0
  6  7  2  0
  7  8  1  0
  8  9  2  0
  8 10  1  0
 10 11  2  0
 11 12  1  0
 12 13  2  0
 13 14  1  0
 14 15  1  0
 15 16  1  0
 16 17  2  0
 16 18  1  0
 18 19  1  0
 19 20  2  0
 20 21  1  0
 21 22  2  0
 22 23  1  0
 23 24  1  0
 24 25  1  0
 24 26  1  0
 24 27  1  0
 23 28  2  0
 14 29  2  0
  7 30  1  0
 30 31  2  0
 31 32  1  0
 32 33  2  0
 33 34  1  0
 34 35  2  0
 35  5  1  0
 29 10  1  0
 35 30  1  0
 28 19  1  0
M  END
>  <Compound_ID>  (268) 
CHEMBL3891860

>  <Molecule Name>  (268) 
nan

>  <Molecular Weight>  (268) 
482.46

>  <AlogP>  (268) 
4.42

>  <Smiles>  (268) 
CC(CO)n1cc(C(=O)c2cncc(NC(=O)Cc3cccc(C(F)(F)F)c3)c2)c2cnccc21

>  <Standard Type>  (268) 
IC50

>  <Standard Relation>  (268) 
'='

>  <Standard Units>  (268) 
nM

>  <Standard Value>  (268) 
44.7

>  <Assay ChEMBL ID>  (268) 
CHEMBL3887111

>  <Assay Description>  (268) 
HTRF Assay: Isolated TRK Enzyme assays use the HTRF KinEASE-TK kit (Cisbio Cat#62TK0PEJ) with recombinant His-tagged cytoplasmic domains of each TRK receptor sourced from Invitrogen (see table below). This activity-assay measures the phosphorylation of tyrosine residues within a substrate from the HTRF kit which has been validated by Cisbio for a variety of tyrosine kinases including the TRK receptors.Assay Details: Invitrogen Amino FAC FAC Assay ReactionTarget Cat# acids enzyme ATP TimeTRKA PV3144 aa 441-4 nM 40 uM 35 min (NTRK1) 796 TRKB PV3616 aa 526-1 nM 1.4 uM 40 min (NTRK2) 838 TRKC PV3617 aa 510- 10 nM 15 uM 30 min (NTRK3) 8250.5 mM stock solutions of test compounds are prepared and serially diluted in 100% DMSO. A standard curve using the compound of Example 135 disclosed in WO2005/116035 of 150 uM is also prepared on each test plate. High percentage effect (HPE) is defined by 150 uM.

>  <BAO Format ID>  (268) 
BAO_0000357

>  <BAO Label>  (268) 
single protein format

>  <Assay Organism>  (268) 
None

>  <Target ChEMBL ID>  (268) 
CHEMBL2815

>  <Target Name>  (268) 
Nerve growth factor receptor Trk-A

>  <Target Organism>  (268) 
Homo sapiens

>  <Target Type>  (268) 
SINGLE PROTEIN

>  <Document ChEMBL ID>  (268) 
CHEMBL3886170

>  <Source Description>  (268) 
BindingDB Database

>  <Document Journal>  (268) 
nan

>  <Document Year>  (268) 
2015.0

>  <Active>  (268) 
1.0

>  <bits>  (268) 
<rdkit.DataStructs.cDataStructs.ExplicitBitVect object at 0x00000159F6035460>

>  <Group>  (268) 
G2

$$$$

     RDKit          2D

 35 39  0  0  0  0  0  0  0  0999 V2000
  -10.9341    7.7749    0.0000 C   0  0  0  0  0  0  0  0  0  0  0  0
  -11.2460    6.3076    0.0000 O   0  0  0  0  0  0  0  0  0  0  0  0
  -10.1313    5.3039    0.0000 C   0  0  0  0  0  0  0  0  0  0  0  0
   -8.7047    5.7675    0.0000 C   0  0  0  0  0  0  0  0  0  0  0  0
   -7.5900    4.7638    0.0000 C   0  0  0  0  0  0  0  0  0  0  0  0
   -7.9018    3.2966    0.0000 C   0  0  0  0  0  0  0  0  0  0  0  0
   -6.7871    2.2929    0.0000 C   0  0  0  0  0  0  0  0  0  0  0  0
   -7.0990    0.8256    0.0000 O   0  0  0  0  0  0  0  0  0  0  0  0
   -5.9843   -0.1781    0.0000 C   0  0  0  0  0  0  0  0  0  0  0  0
   -6.2961   -1.6453    0.0000 C   0  0  0  0  0  0  0  0  0  0  0  0
   -5.1814   -2.6490    0.0000 C   0  0  0  0  0  0  0  0  0  0  0  0
   -3.7548   -2.1855    0.0000 C   0  0  0  0  0  0  0  0  0  0  0  0
   -2.6401   -3.1891    0.0000 C   0  0  0  0  0  0  0  0  0  0  0  0
   -1.2135   -2.7256    0.0000 N   0  0  0  0  0  0  0  0  0  0  0  0
   -0.0000   -3.6073    0.0000 C   0  0  0  0  0  0  0  0  0  0  0  0
    0.0000   -5.1073    0.0000 N   0  0  0  0  0  0  0  0  0  0  0  0
    1.2135   -2.7256    0.0000 N   0  0  0  0  0  0  0  0  0  0  0  0
    0.7500   -1.2990    0.0000 C   0  0  0  0  0  0  0  0  0  0  0  0
    1.5000    0.0000    0.0000 C   0  0  0  0  0  0  0  0  0  0  0  0
    0.7500    1.2990    0.0000 C   0  0  0  0  0  0  0  0  0  0  0  0
    1.5000    2.5981    0.0000 C   0  0  0  0  0  0  0  0  0  0  0  0
    0.8899    3.9684    0.0000 C   0  0  0  0  0  0  0  0  0  0  0  0
    2.0046    4.9721    0.0000 C   0  0  0  0  0  0  0  0  0  0  0  0
    3.3037    4.2221    0.0000 N   0  0  0  0  0  0  0  0  0  0  0  0
    4.6740    4.8322    0.0000 C   0  0  0  0  0  0  0  0  0  0  0  0
    2.9918    2.7549    0.0000 N   0  0  0  0  0  0  0  0  0  0  0  0
   -0.7500    1.2990    0.0000 C   0  0  0  0  0  0  0  0  0  0  0  0
   -1.5000    0.0000    0.0000 N   0  0  0  0  0  0  0  0  0  0  0  0
   -0.7500   -1.2990    0.0000 C   0  0  0  0  0  0  0  0  0  0  0  0
   -3.4430   -0.7182    0.0000 C   0  0  0  0  0  0  0  0  0  0  0  0
   -4.5577    0.2855    0.0000 C   0  0  0  0  0  0  0  0  0  0  0  0
   -4.2458    1.7527    0.0000 O   0  0  0  0  0  0  0  0  0  0  0  0
   -5.3605    2.7564    0.0000 C   0  0  0  0  0  0  0  0  0  0  0  0
   -9.3284    2.8330    0.0000 C   0  0  0  0  0  0  0  0  0  0  0  0
  -10.4431    3.8367    0.0000 N   0  0  0  0  0  0  0  0  0  0  0  0
  1  2  1  0
  2  3  1  0
  3  4  2  0
  4  5  1  0
  5  6  2  0
  6  7  1  0
  7  8  1  0
  8  9  1  0
  9 10  2  0
 10 11  1  0
 11 12  2  0
 12 13  1  0
 13 14  1  0
 14 15  1  0
 15 16  1  0
 15 17  2  0
 17 18  1  0
 18 19  2  0
 19 20  1  0
 20 21  1  0
 21 22  1  0
 22 23  2  0
 23 24  1  0
 24 25  1  0
 24 26  1  0
 20 27  2  0
 27 28  1  0
 28 29  2  0
 12 30  1  0
 30 31  2  0
 31 32  1  0
 32 33  1  0
  6 34  1  0
 34 35  2  0
 35  3  1  0
 31  9  1  0
 29 14  1  0
 29 18  1  0
 26 21  2  0
M  END
>  <Compound_ID>  (269) 
CHEMBL3673483

>  <Molecule Name>  (269) 
nan

>  <Molecular Weight>  (269) 
471.52

>  <AlogP>  (269) 
3.45

>  <Smiles>  (269) 
COc1ccc(COc2ccc(Cn3c(N)nc4cc(-c5ccn(C)n5)cnc43)cc2OC)cn1

>  <Standard Type>  (269) 
IC50

>  <Standard Relation>  (269) 
'='

>  <Standard Units>  (269) 
nM

>  <Standard Value>  (269) 
3.0

>  <Assay ChEMBL ID>  (269) 
CHEMBL3887112

>  <Assay Description>  (269) 
Inhibition Assay: Reagents and consumables were purchased from Sigma Aldrich, Carna Biosciences, or Caliper Life Sciences. All assay reaction conditions for IC50 determinations were within the linear range with respect to time and enzyme concentration. In a 384 well polypropylene plate, TrkA (0.4 nM, Carna 08-186) was pre-incubated in a 100 mM Hepes-NaOH pH 7.5 buffer containing 0.01% Triton X-100, 10 mM MgCl2, 0.1% BSA, 1 mM DTT, 10 uM sodium orthovanadate and 10 uM beta-glycerophosphate and compound with a concentration of 2.5% DMSO for 15 minutes at room temperature. The reaction was initiated with an equal volume of peptide substrate (Caliper Life Sciences catalog no. 760430) and ATP in the aforementioned buffer. The final concentrations in the reaction were 200 pM TrkA, 1.5 uM peptide substrate and 55 uM ATP (ATP Km). The reaction was incubated at room temperature for 180 minutes and terminated with a buffer containing excess EDTA (100 mM Hepes-NaOH pH 7.5, 0.02% Brij.

>  <BAO Format ID>  (269) 
BAO_0000357

>  <BAO Label>  (269) 
single protein format

>  <Assay Organism>  (269) 
None

>  <Target ChEMBL ID>  (269) 
CHEMBL2815

>  <Target Name>  (269) 
Nerve growth factor receptor Trk-A

>  <Target Organism>  (269) 
Homo sapiens

>  <Target Type>  (269) 
SINGLE PROTEIN

>  <Document ChEMBL ID>  (269) 
CHEMBL3638818

>  <Source Description>  (269) 
BindingDB Database

>  <Document Journal>  (269) 
nan

>  <Document Year>  (269) 
2015.0

>  <Active>  (269) 
1.0

>  <bits>  (269) 
<rdkit.DataStructs.cDataStructs.ExplicitBitVect object at 0x00000159F6034BA0>

>  <Group>  (269) 
G2

$$$$

     RDKit          2D

 32 36  0  0  0  0  0  0  0  0999 V2000
   -4.5873   -3.6345    0.0000 C   0  0  0  0  0  0  0  0  0  0  0  0
   -4.3786   -5.1199    0.0000 C   0  0  0  0  0  0  0  0  0  0  0  0
   -2.9520   -4.6564    0.0000 C   0  0  0  0  0  0  0  0  0  0  0  0
   -1.8373   -5.6601    0.0000 O   0  0  0  0  0  0  0  0  0  0  0  0
   -2.6401   -3.1891    0.0000 N   0  0  0  0  0  0  0  0  0  0  0  0
   -1.2135   -2.7256    0.0000 C   0  0  0  0  0  0  0  0  0  0  0  0
   -0.0000   -3.6073    0.0000 C   0  0  0  0  0  0  0  0  0  0  0  0
    1.2135   -2.7256    0.0000 N   0  0  0  0  0  0  0  0  0  0  0  0
    0.7500   -1.2990    0.0000 N   0  0  0  0  0  0  0  0  0  0  0  0
    1.5000    0.0000    0.0000 C   0  0  0  0  0  0  0  0  0  0  0  0
    0.7500    1.2990    0.0000 C   0  0  0  0  0  0  0  0  0  0  0  0
   -0.7500    1.2990    0.0000 C   0  0  0  0  0  0  0  0  0  0  0  0
   -1.5000    2.5981    0.0000 N   0  0  0  0  0  0  0  0  0  0  0  0
   -2.9918    2.7549    0.0000 C   0  0  0  0  0  0  0  0  0  0  0  0
   -3.3037    4.2221    0.0000 C   0  0  0  0  0  0  0  0  0  0  0  0
   -2.0046    4.9721    0.0000 C   0  0  0  0  0  0  0  0  0  0  0  0
   -0.8899    3.9684    0.0000 C   0  0  0  0  0  0  0  0  0  0  0  0
    0.5773    4.2803    0.0000 C   0  0  0  0  0  0  0  0  0  0  0  0
    1.5810    3.1655    0.0000 C   0  0  0  0  0  0  0  0  0  0  0  0
    3.0482    3.4774    0.0000 C   0  0  0  0  0  0  0  0  0  0  0  0
    4.0519    2.3627    0.0000 F   0  0  0  0  0  0  0  0  0  0  0  0
    3.5118    4.9040    0.0000 C   0  0  0  0  0  0  0  0  0  0  0  0
    2.5081    6.0187    0.0000 C   0  0  0  0  0  0  0  0  0  0  0  0
    1.0409    5.7068    0.0000 C   0  0  0  0  0  0  0  0  0  0  0  0
    0.0372    6.8216    0.0000 Cl  0  0  0  0  0  0  0  0  0  0  0  0
   -1.5000    0.0000    0.0000 N   0  0  0  0  0  0  0  0  0  0  0  0
   -0.7500   -1.2990    0.0000 C   0  0  0  0  0  0  0  0  0  0  0  0
   -3.6744   -6.4443    0.0000 C   0  0  0  0  0  0  0  0  0  0  0  0
   -4.4692   -7.7164    0.0000 C   0  0  0  0  0  0  0  0  0  0  0  0
   -5.9683   -7.6640    0.0000 N   0  0  0  0  0  0  0  0  0  0  0  0
   -6.6725   -6.3396    0.0000 C   0  0  0  0  0  0  0  0  0  0  0  0
   -5.8776   -5.0675    0.0000 C   0  0  0  0  0  0  0  0  0  0  0  0
  1  2  1  0
  2  3  1  0
  3  4  2  0
  3  5  1  0
  5  6  1  0
  6  7  1  0
  7  8  2  0
  8  9  1  0
  9 10  1  0
 10 11  2  0
 11 12  1  0
 12 13  1  0
 13 14  1  0
 14 15  1  0
 15 16  1  0
 16 17  1  0
 17 18  1  6
 18 19  2  0
 19 20  1  0
 20 21  1  0
 20 22  2  0
 22 23  1  0
 23 24  2  0
 24 25  1  0
 12 26  2  0
 26 27  1  0
  2 28  1  0
 28 29  1  0
 29 30  1  0
 30 31  1  0
 31 32  1  0
 32  2  1  0
 27  6  2  0
 27  9  1  0
 17 13  1  0
 24 18  1  0
M  END
>  <Compound_ID>  (270) 
CHEMBL4106837

>  <Molecule Name>  (270) 
nan

>  <Molecular Weight>  (270) 
456.95

>  <AlogP>  (270) 
4.19

>  <Smiles>  (270) 
CC1(C(=O)Nc2cnn3ccc(N4CCC[C@@H]4c4cc(F)ccc4Cl)nc23)CCNCC1

>  <Standard Type>  (270) 
IC50

>  <Standard Relation>  (270) 
'='

>  <Standard Units>  (270) 
nM

>  <Standard Value>  (270) 
29.2

>  <Assay ChEMBL ID>  (270) 
CHEMBL3887076

>  <Assay Description>  (270) 
ELISA Assay: An enzyme-linked immunosorbant assay (ELISA) was used to assess TrkA kinase activity in the presence of inhibitors. Immulon 4HBX 384-well microtiter plates (Thermo part #8755) were coated with a 0.025 mg/mL solution of poly (Glu, Ala, Tyr; 6:3:1; Sigma P3899). Various concentrations of test compound, 2.5 nM TrkA (Invitrogen Corp., histidine-tagged recombinant human TrkA, cytoplasmic domain), and 500 uM ATP were incubated for 25 minutes at ambient temperature in the coated plates while shaking. The assay buffer consisted of 25 mM MOPS pH 7.5, 0.005% (v/v) Triton X-100 and 5 mM MgCl2. The reaction mixture was removed from the plate by washing with PBS containing 0.1% (v/v) Tween 20. The phosphorylated reaction product was detected using 0.2 ug/mL of a phosphotyrosine specific monoclonal antibody (clone PY20) conjugated to horseradish peroxidase in conjunction with the TMB Peroxidase Substrate System (KPL).

>  <BAO Format ID>  (270) 
BAO_0000357

>  <BAO Label>  (270) 
single protein format

>  <Assay Organism>  (270) 
None

>  <Target ChEMBL ID>  (270) 
CHEMBL2815

>  <Target Name>  (270) 
Nerve growth factor receptor Trk-A

>  <Target Organism>  (270) 
Homo sapiens

>  <Target Type>  (270) 
SINGLE PROTEIN

>  <Document ChEMBL ID>  (270) 
CHEMBL3886151

>  <Source Description>  (270) 
BindingDB Database

>  <Document Journal>  (270) 
nan

>  <Document Year>  (270) 
2014.0

>  <Active>  (270) 
1.0

>  <bits>  (270) 
<rdkit.DataStructs.cDataStructs.ExplicitBitVect object at 0x00000159F6035EE0>

>  <Group>  (270) 
G2

$$$$

     RDKit          2D

 32 36  0  0  0  0  0  0  0  0999 V2000
   -8.0346   -3.5760    0.0000 C   0  0  0  0  0  0  0  0  0  0  0  0
   -6.9199   -4.5797    0.0000 C   0  0  0  0  0  0  0  0  0  0  0  0
   -5.4933   -4.1162    0.0000 C   0  0  0  0  0  0  0  0  0  0  0  0
   -4.3786   -5.1199    0.0000 N   0  0  0  0  0  0  0  0  0  0  0  0
   -2.9520   -4.6564    0.0000 C   0  0  0  0  0  0  0  0  0  0  0  0
   -1.8373   -5.6601    0.0000 O   0  0  0  0  0  0  0  0  0  0  0  0
   -2.6401   -3.1891    0.0000 N   0  0  0  0  0  0  0  0  0  0  0  0
   -1.2135   -2.7256    0.0000 C   0  0  0  0  0  0  0  0  0  0  0  0
   -0.0000   -3.6073    0.0000 C   0  0  0  0  0  0  0  0  0  0  0  0
    1.2135   -2.7256    0.0000 N   0  0  0  0  0  0  0  0  0  0  0  0
    0.7500   -1.2990    0.0000 C   0  0  0  0  0  0  0  0  0  0  0  0
    1.5000    0.0000    0.0000 C   0  0  0  0  0  0  0  0  0  0  0  0
    0.7500    1.2990    0.0000 C   0  0  0  0  0  0  0  0  0  0  0  0
   -0.7500    1.2990    0.0000 C   0  0  0  0  0  0  0  0  0  0  0  0
   -1.5000    2.5981    0.0000 N   0  0  0  0  0  0  0  0  0  0  0  0
   -2.9918    2.7549    0.0000 C   0  0  0  0  0  0  0  0  0  0  0  0
   -3.3037    4.2221    0.0000 C   0  0  0  0  0  0  0  0  0  0  0  0
   -2.0046    4.9721    0.0000 C   0  0  0  0  0  0  0  0  0  0  0  0
   -0.8899    3.9684    0.0000 C   0  0  0  0  0  0  0  0  0  0  0  0
    0.5773    4.2803    0.0000 C   0  0  0  0  0  0  0  0  0  0  0  0
    1.5810    3.1655    0.0000 C   0  0  0  0  0  0  0  0  0  0  0  0
    3.0482    3.4774    0.0000 C   0  0  0  0  0  0  0  0  0  0  0  0
    4.0519    2.3627    0.0000 F   0  0  0  0  0  0  0  0  0  0  0  0
    3.5118    4.9040    0.0000 C   0  0  0  0  0  0  0  0  0  0  0  0
    2.5081    6.0187    0.0000 C   0  0  0  0  0  0  0  0  0  0  0  0
    1.0409    5.7068    0.0000 C   0  0  0  0  0  0  0  0  0  0  0  0
    0.0372    6.8216    0.0000 F   0  0  0  0  0  0  0  0  0  0  0  0
   -1.5000    0.0000    0.0000 N   0  0  0  0  0  0  0  0  0  0  0  0
   -0.7500   -1.2990    0.0000 N   0  0  0  0  0  0  0  0  0  0  0  0
   -4.6904   -6.5871    0.0000 C   0  0  0  0  0  0  0  0  0  0  0  0
   -6.1170   -7.0506    0.0000 C   0  0  0  0  0  0  0  0  0  0  0  0
   -7.2317   -6.0469    0.0000 N   0  0  0  0  0  0  0  0  0  0  0  0
  2  1  1  1
  2  3  1  0
  3  4  1  0
  4  5  1  0
  5  6  2  0
  5  7  1  0
  7  8  1  0
  8  9  2  0
  9 10  1  0
 10 11  2  0
 11 12  1  0
 12 13  2  0
 13 14  1  0
 14 15  1  0
 15 16  1  0
 16 17  1  0
 17 18  1  0
 18 19  1  0
 19 20  1  6
 20 21  2  0
 21 22  1  0
 22 23  1  0
 22 24  2  0
 24 25  1  0
 25 26  2  0
 26 27  1  0
 14 28  2  0
 28 29  1  0
  4 30  1  0
 30 31  1  0
 31 32  1  0
 32  2  1  0
 29  8  1  0
 29 11  1  0
 19 15  1  0
 26 20  1  0
M  END
>  <Compound_ID>  (271) 
CHEMBL3902484

>  <Molecule Name>  (271) 
nan

>  <Molecular Weight>  (271) 
441.49

>  <AlogP>  (271) 
3.17

>  <Smiles>  (271) 
C[C@H]1CN(C(=O)Nc2cnc3ccc(N4CCC[C@@H]4c4cc(F)ccc4F)nn23)CCN1

>  <Standard Type>  (271) 
IC50

>  <Standard Relation>  (271) 
'='

>  <Standard Units>  (271) 
nM

>  <Standard Value>  (271) 
29.9

>  <Assay ChEMBL ID>  (271) 
CHEMBL3887826

>  <Assay Description>  (271) 
ELISA Assay: An enzyme-linked immunosorbant assay (ELISA) was used to assess TrkA kinase activity in the presence of inhibitors. Immulon 4HBX 384-well microtiter plates (Thermo part #8755) were coated with a 0.025 mg/mL solution of poly (Glu, Ala, Tyr; 6:3:1; Sigma P3899). Various concentrations of test compound, 2.5 nM TrkA (Invitrogen Corp., histidine-tagged recombinant human TrkA, cytoplasmic domain), and 500 uM ATP were incubated for 25 minutes at ambient temperature in the coated plates while shaking. The assay buffer consisted of 25 mM MOPS pH 7.5, 0.005% (v/v) Triton X-100 and 5 mM MgCl2. The reaction mixture was removed from the plate by washing with PBS containing 0.1% (v/v) Tween 20. The phosphorylated reaction product was detected using 0.2 ug/mL of a phosphotyrosine specific monoclonal antibody (clone PY20) conjugated to horseradish peroxidase in conjunction with the TMB Peroxidase Substrate System (KPL).

>  <BAO Format ID>  (271) 
BAO_0000357

>  <BAO Label>  (271) 
single protein format

>  <Assay Organism>  (271) 
None

>  <Target ChEMBL ID>  (271) 
CHEMBL2815

>  <Target Name>  (271) 
Nerve growth factor receptor Trk-A

>  <Target Organism>  (271) 
Homo sapiens

>  <Target Type>  (271) 
SINGLE PROTEIN

>  <Document ChEMBL ID>  (271) 
CHEMBL3886465

>  <Source Description>  (271) 
BindingDB Database

>  <Document Journal>  (271) 
nan

>  <Document Year>  (271) 
2016.0

>  <Active>  (271) 
1.0

>  <bits>  (271) 
<rdkit.DataStructs.cDataStructs.ExplicitBitVect object at 0x00000159F6034F20>

>  <Group>  (271) 
G2

$$$$

     RDKit          2D

 40 44  0  0  0  0  0  0  0  0999 V2000
    3.7500   -1.2990    0.0000 C   0  0  0  0  0  0  0  0  0  0  0  0
    3.0000    0.0000    0.0000 C   0  0  0  0  0  0  0  0  0  0  0  0
    1.5000    0.0000    0.0000 C   0  0  0  0  0  0  0  0  0  0  0  0
    0.7500   -1.2990    0.0000 C   0  0  0  0  0  0  0  0  0  0  0  0
   -0.7500   -1.2990    0.0000 C   0  0  0  0  0  0  0  0  0  0  0  0
   -1.5000    0.0000    0.0000 C   0  0  0  0  0  0  0  0  0  0  0  0
   -0.7500    1.2990    0.0000 C   0  0  0  0  0  0  0  0  0  0  0  0
    0.7500    1.2990    0.0000 C   0  0  0  0  0  0  0  0  0  0  0  0
   -1.5000    2.5981    0.0000 C   0  0  0  0  0  0  0  0  0  0  0  0
   -0.7500    3.8971    0.0000 O   0  0  0  0  0  0  0  0  0  0  0  0
   -3.0000    2.5981    0.0000 C   0  0  0  0  0  0  0  0  0  0  0  0
   -3.7500    3.8971    0.0000 C   0  0  0  0  0  0  0  0  0  0  0  0
   -5.2500    3.8971    0.0000 O   0  0  0  0  0  0  0  0  0  0  0  0
   -3.0000    5.1962    0.0000 N   0  0  0  0  0  0  0  0  0  0  0  0
   -3.7500    6.4952    0.0000 C   0  0  0  0  0  0  0  0  0  0  0  0
   -3.0000    7.7942    0.0000 C   0  0  0  0  0  0  0  0  0  0  0  0
   -3.7500    9.0933    0.0000 C   0  0  0  0  0  0  0  0  0  0  0  0
   -5.2500    9.0933    0.0000 C   0  0  0  0  0  0  0  0  0  0  0  0
   -6.0000   10.3923    0.0000 O   0  0  0  0  0  0  0  0  0  0  0  0
   -5.2500   11.6913    0.0000 C   0  0  0  0  0  0  0  0  0  0  0  0
   -3.7500   11.6913    0.0000 N   0  0  0  0  0  0  0  0  0  0  0  0
   -3.0000   12.9904    0.0000 C   0  0  0  0  0  0  0  0  0  0  0  0
   -3.7500   14.2894    0.0000 N   0  0  0  0  0  0  0  0  0  0  0  0
   -5.2500   14.2894    0.0000 C   0  0  0  0  0  0  0  0  0  0  0  0
   -6.0000   15.5885    0.0000 C   0  0  0  0  0  0  0  0  0  0  0  0
   -7.5000   15.5885    0.0000 C   0  0  0  0  0  0  0  0  0  0  0  0
   -8.2500   16.8875    0.0000 O   0  0  0  0  0  0  0  0  0  0  0  0
   -7.5000   18.1865    0.0000 C   0  0  0  0  0  0  0  0  0  0  0  0
   -8.2500   14.2894    0.0000 C   0  0  0  0  0  0  0  0  0  0  0  0
   -9.7500   14.2894    0.0000 O   0  0  0  0  0  0  0  0  0  0  0  0
  -10.5000   12.9904    0.0000 C   0  0  0  0  0  0  0  0  0  0  0  0
   -7.5000   12.9904    0.0000 C   0  0  0  0  0  0  0  0  0  0  0  0
   -6.0000   12.9904    0.0000 C   0  0  0  0  0  0  0  0  0  0  0  0
   -6.0000    7.7942    0.0000 C   0  0  0  0  0  0  0  0  0  0  0  0
   -7.5000    7.7942    0.0000 F   0  0  0  0  0  0  0  0  0  0  0  0
   -5.2500    6.4952    0.0000 C   0  0  0  0  0  0  0  0  0  0  0  0
   -3.7500    1.2990    0.0000 C   0  0  0  0  0  0  0  0  0  0  0  0
   -5.2500    1.2990    0.0000 C   0  0  0  0  0  0  0  0  0  0  0  0
   -3.0000    0.0000    0.0000 N   0  0  0  0  0  0  0  0  0  0  0  0
   -3.7500   -1.2990    0.0000 C   0  0  0  0  0  0  0  0  0  0  0  0
  1  2  1  0
  2  3  1  0
  3  4  2  0
  4  5  1  0
  5  6  2  0
  6  7  1  0
  7  8  2  0
  7  9  1  0
  9 10  2  0
  9 11  1  0
 11 12  1  0
 12 13  2  0
 12 14  1  0
 14 15  1  0
 15 16  2  0
 16 17  1  0
 17 18  2  0
 18 19  1  0
 19 20  1  0
 20 21  2  0
 21 22  1  0
 22 23  2  0
 23 24  1  0
 24 25  2  0
 25 26  1  0
 26 27  1  0
 27 28  1  0
 26 29  2  0
 29 30  1  0
 30 31  1  0
 29 32  1  0
 32 33  2  0
 18 34  1  0
 34 35  1  0
 34 36  2  0
 11 37  2  0
 37 38  1  0
 37 39  1  0
 39 40  1  0
  8  3  1  0
 36 15  1  0
 39  6  1  0
 33 20  1  0
 33 24  1  0
M  END
>  <Compound_ID>  (272) 
CHEMBL4571241

>  <Molecule Name>  (272) 
nan

>  <Molecular Weight>  (272) 
542.57

>  <AlogP>  (272) 
5.55

>  <Smiles>  (272) 
CCc1ccc2c(c1)c(=O)c(C(=O)Nc1ccc(Oc3ncnc4cc(OC)c(OC)cc34)c(F)c1)c(C)n2C

>  <Standard Type>  (272) 
Kd

>  <Standard Relation>  (272) 
'='

>  <Standard Units>  (272) 
nM

>  <Standard Value>  (272) 
50.0

>  <Assay ChEMBL ID>  (272) 
CHEMBL4426912

>  <Assay Description>  (272) 
Binding affinity to human TRKA

>  <BAO Format ID>  (272) 
BAO_0000357

>  <BAO Label>  (272) 
single protein format

>  <Assay Organism>  (272) 
Homo sapiens

>  <Target ChEMBL ID>  (272) 
CHEMBL2815

>  <Target Name>  (272) 
Nerve growth factor receptor Trk-A

>  <Target Organism>  (272) 
Homo sapiens

>  <Target Type>  (272) 
SINGLE PROTEIN

>  <Document ChEMBL ID>  (272) 
CHEMBL4425136

>  <Source Description>  (272) 
Scientific Literature

>  <Document Journal>  (272) 
J Med Chem

>  <Document Year>  (272) 
2016.0

>  <Active>  (272) 
1.0

>  <bits>  (272) 
<rdkit.DataStructs.cDataStructs.ExplicitBitVect object at 0x00000159F6035380>

>  <Group>  (272) 
G2

$$$$

     RDKit          2D

 36 41  0  0  0  0  0  0  0  0999 V2000
   -3.7548   -2.1855    0.0000 O   0  0  0  0  0  0  0  0  0  0  0  0
   -2.6401   -3.1891    0.0000 C   0  0  0  0  0  0  0  0  0  0  0  0
   -2.9520   -4.6564    0.0000 N   0  0  0  0  0  0  0  0  0  0  0  0
   -4.3786   -5.1199    0.0000 C   0  0  0  0  0  0  0  0  0  0  0  0
   -5.3823   -6.2346    0.0000 C   0  0  0  0  0  0  0  0  0  0  0  0
   -5.8458   -4.8080    0.0000 C   0  0  0  0  0  0  0  0  0  0  0  0
   -1.2135   -2.7256    0.0000 C   0  0  0  0  0  0  0  0  0  0  0  0
   -0.0000   -3.6073    0.0000 C   0  0  0  0  0  0  0  0  0  0  0  0
    1.2135   -2.7256    0.0000 N   0  0  0  0  0  0  0  0  0  0  0  0
    0.7500   -1.2990    0.0000 N   0  0  0  0  0  0  0  0  0  0  0  0
    1.5000    0.0000    0.0000 C   0  0  0  0  0  0  0  0  0  0  0  0
    0.7500    1.2990    0.0000 C   0  0  0  0  0  0  0  0  0  0  0  0
   -0.7500    1.2990    0.0000 C   0  0  0  0  0  0  0  0  0  0  0  0
   -1.5000    2.5981    0.0000 N   0  0  0  0  0  0  0  0  0  0  0  0
   -2.9918    2.7549    0.0000 C   0  0  0  0  0  0  0  0  0  0  0  0
   -3.3037    4.2221    0.0000 C   0  0  0  0  0  0  0  0  0  0  0  0
   -2.0046    4.9721    0.0000 C   0  0  0  0  0  0  0  0  0  0  0  0
   -0.8899    3.9684    0.0000 C   0  0  0  0  0  0  0  0  0  0  0  0
    0.5773    4.2803    0.0000 C   0  0  0  0  0  0  0  0  0  0  0  0
    1.5810    3.1655    0.0000 C   0  0  0  0  0  0  0  0  0  0  0  0
    3.0482    3.4774    0.0000 C   0  0  0  0  0  0  0  0  0  0  0  0
    4.0519    2.3627    0.0000 F   0  0  0  0  0  0  0  0  0  0  0  0
    3.5118    4.9040    0.0000 C   0  0  0  0  0  0  0  0  0  0  0  0
    2.5081    6.0187    0.0000 C   0  0  0  0  0  0  0  0  0  0  0  0
    1.0409    5.7068    0.0000 C   0  0  0  0  0  0  0  0  0  0  0  0
    0.0372    6.8216    0.0000 O   0  0  0  0  0  0  0  0  0  0  0  0
    0.5007    8.2481    0.0000 C   0  0  0  0  0  0  0  0  0  0  0  0
   -0.5030    9.3629    0.0000 C   0  0  0  0  0  0  0  0  0  0  0  0
   -0.0395   10.7895    0.0000 N   0  0  0  0  0  0  0  0  0  0  0  0
    1.4277   11.1013    0.0000 C   0  0  0  0  0  0  0  0  0  0  0  0
    1.8913   12.5279    0.0000 C   0  0  0  0  0  0  0  0  0  0  0  0
    0.8876   13.6426    0.0000 O   0  0  0  0  0  0  0  0  0  0  0  0
   -0.5797   13.3308    0.0000 C   0  0  0  0  0  0  0  0  0  0  0  0
   -1.0432   11.9042    0.0000 C   0  0  0  0  0  0  0  0  0  0  0  0
   -1.5000    0.0000    0.0000 N   0  0  0  0  0  0  0  0  0  0  0  0
   -0.7500   -1.2990    0.0000 C   0  0  0  0  0  0  0  0  0  0  0  0
  1  2  2  0
  2  3  1  0
  3  4  1  0
  4  5  1  0
  5  6  1  0
  2  7  1  0
  7  8  1  0
  8  9  2  0
  9 10  1  0
 10 11  1  0
 11 12  2  0
 12 13  1  0
 13 14  1  0
 14 15  1  0
 15 16  1  0
 16 17  1  0
 17 18  1  0
 18 19  1  6
 19 20  2  0
 20 21  1  0
 21 22  1  0
 21 23  2  0
 23 24  1  0
 24 25  2  0
 25 26  1  0
 26 27  1  0
 27 28  1  0
 28 29  1  0
 29 30  1  0
 30 31  1  0
 31 32  1  0
 32 33  1  0
 33 34  1  0
 13 35  2  0
 35 36  1  0
  6  4  1  0
 36  7  2  0
 36 10  1  0
 18 14  1  0
 25 19  1  0
 34 29  1  0
M  END
>  <Compound_ID>  (273) 
CHEMBL3675962

>  <Molecule Name>  (273) 
nan

>  <Molecular Weight>  (273) 
494.57

>  <AlogP>  (273) 
2.81

>  <Smiles>  (273) 
O=C(NC1CC1)c1cnn2ccc(N3CCC[C@@H]3c3cc(F)ccc3OCCN3CCOCC3)nc12

>  <Standard Type>  (273) 
IC50

>  <Standard Relation>  (273) 
'='

>  <Standard Units>  (273) 
nM

>  <Standard Value>  (273) 
16.1

>  <Assay ChEMBL ID>  (273) 
CHEMBL3887070

>  <Assay Description>  (273) 
ELISA Assay: An enzyme-linked immunosorbant assay (ELISA) was used to assess TrkA kinase activity in the presence of inhibitors. Immulon 4HBX 384-well microtiter plates (Thermo part #8755) were coated with a 0.025 mg/mL solution of poly (Glu, Ala, Tyr; 6:3:1; Sigma P3899). Various concentrations of test compound, 2.5 nM TrkA (Invitrogen Corp., histidine-tagged recombinant human TrkA, cytoplasmic domain), and 500 uM ATP were incubated for 25 minutes at ambient temperature in the coated plates while shaking The assay buffer consisted of 25 mM MOPS pH 7.5, 0.005% (v/v) Triton X-100 and 5 mM MgCl2. The reaction mixture was removed from the plate by washing with PBS containing 0.1% (v/v) Tween 20. The phosphorylated reaction product was detected using 0.2 ug/mL of a phosphotyrosine specific monoclonal antibody (clone PY20) conjugated to horseradish peroxidase in conjunction with the TMB Peroxidase Substrate System (KPL).

>  <BAO Format ID>  (273) 
BAO_0000357

>  <BAO Label>  (273) 
single protein format

>  <Assay Organism>  (273) 
None

>  <Target ChEMBL ID>  (273) 
CHEMBL2815

>  <Target Name>  (273) 
Nerve growth factor receptor Trk-A

>  <Target Organism>  (273) 
Homo sapiens

>  <Target Type>  (273) 
SINGLE PROTEIN

>  <Document ChEMBL ID>  (273) 
CHEMBL3638907

>  <Source Description>  (273) 
BindingDB Database

>  <Document Journal>  (273) 
nan

>  <Document Year>  (273) 
2014.0

>  <Active>  (273) 
1.0

>  <bits>  (273) 
<rdkit.DataStructs.cDataStructs.ExplicitBitVect object at 0x00000159F6036340>

>  <Group>  (273) 
G2

$$$$

     RDKit          2D

 34 37  0  0  0  0  0  0  0  0999 V2000
  -14.0921   -2.9925    0.0000 C   0  0  0  0  0  0  0  0  0  0  0  0
  -13.4820   -4.3628    0.0000 C   0  0  0  0  0  0  0  0  0  0  0  0
  -14.3637   -5.5763    0.0000 C   0  0  0  0  0  0  0  0  0  0  0  0
  -11.9903   -4.5196    0.0000 C   0  0  0  0  0  0  0  0  0  0  0  0
  -11.2403   -5.8186    0.0000 C   0  0  0  0  0  0  0  0  0  0  0  0
   -9.7730   -5.5068    0.0000 N   0  0  0  0  0  0  0  0  0  0  0  0
   -8.6583   -6.5105    0.0000 C   0  0  0  0  0  0  0  0  0  0  0  0
   -7.2317   -6.0469    0.0000 C   0  0  0  0  0  0  0  0  0  0  0  0
   -6.9199   -4.5797    0.0000 O   0  0  0  0  0  0  0  0  0  0  0  0
   -6.1170   -7.0506    0.0000 N   0  0  0  0  0  0  0  0  0  0  0  0
   -4.6904   -6.5871    0.0000 C   0  0  0  0  0  0  0  0  0  0  0  0
   -3.5757   -7.5908    0.0000 C   0  0  0  0  0  0  0  0  0  0  0  0
   -2.1491   -7.1273    0.0000 N   0  0  0  0  0  0  0  0  0  0  0  0
   -1.8373   -5.6601    0.0000 C   0  0  0  0  0  0  0  0  0  0  0  0
   -2.9520   -4.6564    0.0000 C   0  0  0  0  0  0  0  0  0  0  0  0
   -2.6401   -3.1891    0.0000 C   0  0  0  0  0  0  0  0  0  0  0  0
   -3.7548   -2.1855    0.0000 O   0  0  0  0  0  0  0  0  0  0  0  0
   -1.2135   -2.7256    0.0000 C   0  0  0  0  0  0  0  0  0  0  0  0
   -0.0000   -3.6073    0.0000 C   0  0  0  0  0  0  0  0  0  0  0  0
    1.2135   -2.7256    0.0000 N   0  0  0  0  0  0  0  0  0  0  0  0
    2.6401   -3.1891    0.0000 C   0  0  0  0  0  0  0  0  0  0  0  0
    2.1766   -4.6157    0.0000 C   0  0  0  0  0  0  0  0  0  0  0  0
    3.1036   -1.7626    0.0000 C   0  0  0  0  0  0  0  0  0  0  0  0
    4.0667   -3.6527    0.0000 C   0  0  0  0  0  0  0  0  0  0  0  0
    5.1814   -2.6490    0.0000 O   0  0  0  0  0  0  0  0  0  0  0  0
    0.7500   -1.2990    0.0000 C   0  0  0  0  0  0  0  0  0  0  0  0
    1.5000    0.0000    0.0000 C   0  0  0  0  0  0  0  0  0  0  0  0
    0.7500    1.2990    0.0000 C   0  0  0  0  0  0  0  0  0  0  0  0
   -0.7500    1.2990    0.0000 N   0  0  0  0  0  0  0  0  0  0  0  0
   -1.5000    0.0000    0.0000 C   0  0  0  0  0  0  0  0  0  0  0  0
   -0.7500   -1.2990    0.0000 C   0  0  0  0  0  0  0  0  0  0  0  0
   -4.3786   -5.1199    0.0000 C   0  0  0  0  0  0  0  0  0  0  0  0
   -9.6162   -4.0150    0.0000 N   0  0  0  0  0  0  0  0  0  0  0  0
  -10.9866   -3.4049    0.0000 N   0  0  0  0  0  0  0  0  0  0  0  0
  1  2  1  0
  2  3  1  0
  2  4  1  0
  4  5  2  0
  5  6  1  0
  6  7  1  0
  7  8  1  0
  8  9  2  0
  8 10  1  0
 10 11  1  0
 11 12  2  0
 12 13  1  0
 13 14  2  0
 14 15  1  0
 15 16  1  0
 16 17  2  0
 16 18  1  0
 18 19  2  0
 19 20  1  0
 20 21  1  0
 21 22  1  0
 21 23  1  0
 21 24  1  0
 24 25  1  0
 20 26  1  0
 26 27  2  0
 27 28  1  0
 28 29  2  0
 29 30  1  0
 30 31  2  0
 15 32  2  0
  6 33  1  0
 33 34  2  0
 34  4  1  0
 32 11  1  0
 31 18  1  0
 31 26  1  0
M  END
>  <Compound_ID>  (274) 
CHEMBL3951602

>  <Molecule Name>  (274) 
nan

>  <Molecular Weight>  (274) 
461.53

>  <AlogP>  (274) 
2.74

>  <Smiles>  (274) 
CC(C)c1cn(CC(=O)Nc2cncc(C(=O)c3cn(C(C)(C)CO)c4ccncc34)c2)nn1

>  <Standard Type>  (274) 
IC50

>  <Standard Relation>  (274) 
'='

>  <Standard Units>  (274) 
nM

>  <Standard Value>  (274) 
9.89

>  <Assay ChEMBL ID>  (274) 
CHEMBL3887111

>  <Assay Description>  (274) 
HTRF Assay: Isolated TRK Enzyme assays use the HTRF KinEASE-TK kit (Cisbio Cat#62TK0PEJ) with recombinant His-tagged cytoplasmic domains of each TRK receptor sourced from Invitrogen (see table below). This activity-assay measures the phosphorylation of tyrosine residues within a substrate from the HTRF kit which has been validated by Cisbio for a variety of tyrosine kinases including the TRK receptors.Assay Details: Invitrogen Amino FAC FAC Assay ReactionTarget Cat# acids enzyme ATP TimeTRKA PV3144 aa 441-4 nM 40 uM 35 min (NTRK1) 796 TRKB PV3616 aa 526-1 nM 1.4 uM 40 min (NTRK2) 838 TRKC PV3617 aa 510- 10 nM 15 uM 30 min (NTRK3) 8250.5 mM stock solutions of test compounds are prepared and serially diluted in 100% DMSO. A standard curve using the compound of Example 135 disclosed in WO2005/116035 of 150 uM is also prepared on each test plate. High percentage effect (HPE) is defined by 150 uM.

>  <BAO Format ID>  (274) 
BAO_0000357

>  <BAO Label>  (274) 
single protein format

>  <Assay Organism>  (274) 
None

>  <Target ChEMBL ID>  (274) 
CHEMBL2815

>  <Target Name>  (274) 
Nerve growth factor receptor Trk-A

>  <Target Organism>  (274) 
Homo sapiens

>  <Target Type>  (274) 
SINGLE PROTEIN

>  <Document ChEMBL ID>  (274) 
CHEMBL3886170

>  <Source Description>  (274) 
BindingDB Database

>  <Document Journal>  (274) 
nan

>  <Document Year>  (274) 
2015.0

>  <Active>  (274) 
1.0

>  <bits>  (274) 
<rdkit.DataStructs.cDataStructs.ExplicitBitVect object at 0x00000159F6036FF0>

>  <Group>  (274) 
G2

$$$$

     RDKit          2D

 37 41  0  0  0  0  0  0  0  0999 V2000
  -10.9341    7.7749    0.0000 C   0  0  0  0  0  0  0  0  0  0  0  0
  -11.2460    6.3076    0.0000 O   0  0  0  0  0  0  0  0  0  0  0  0
  -10.1313    5.3039    0.0000 C   0  0  0  0  0  0  0  0  0  0  0  0
   -8.7047    5.7675    0.0000 C   0  0  0  0  0  0  0  0  0  0  0  0
   -7.5900    4.7638    0.0000 C   0  0  0  0  0  0  0  0  0  0  0  0
   -7.9018    3.2966    0.0000 C   0  0  0  0  0  0  0  0  0  0  0  0
   -6.7871    2.2929    0.0000 C   0  0  0  0  0  0  0  0  0  0  0  0
   -7.0990    0.8256    0.0000 O   0  0  0  0  0  0  0  0  0  0  0  0
   -5.9843   -0.1781    0.0000 C   0  0  0  0  0  0  0  0  0  0  0  0
   -6.2961   -1.6453    0.0000 C   0  0  0  0  0  0  0  0  0  0  0  0
   -5.1814   -2.6490    0.0000 C   0  0  0  0  0  0  0  0  0  0  0  0
   -3.7548   -2.1855    0.0000 C   0  0  0  0  0  0  0  0  0  0  0  0
   -2.6401   -3.1891    0.0000 C   0  0  0  0  0  0  0  0  0  0  0  0
   -1.2135   -2.7256    0.0000 N   0  0  0  0  0  0  0  0  0  0  0  0
   -0.0000   -3.6073    0.0000 C   0  0  0  0  0  0  0  0  0  0  0  0
    0.0000   -5.1073    0.0000 N   0  0  0  0  0  0  0  0  0  0  0  0
    1.2135   -2.7256    0.0000 N   0  0  0  0  0  0  0  0  0  0  0  0
    0.7500   -1.2990    0.0000 C   0  0  0  0  0  0  0  0  0  0  0  0
    1.5000    0.0000    0.0000 C   0  0  0  0  0  0  0  0  0  0  0  0
    0.7500    1.2990    0.0000 C   0  0  0  0  0  0  0  0  0  0  0  0
    1.5000    2.5981    0.0000 C   0  0  0  0  0  0  0  0  0  0  0  0
    2.2500    3.8971    0.0000 C   0  0  0  0  0  0  0  0  0  0  0  0
    3.0000    5.1962    0.0000 C   0  0  0  0  0  0  0  0  0  0  0  0
    4.5000    5.1962    0.0000 C   0  0  0  0  0  0  0  0  0  0  0  0
    5.2500    6.4952    0.0000 C   0  0  0  0  0  0  0  0  0  0  0  0
    4.5000    7.7942    0.0000 C   0  0  0  0  0  0  0  0  0  0  0  0
    3.0000    7.7942    0.0000 C   0  0  0  0  0  0  0  0  0  0  0  0
    2.2500    6.4952    0.0000 C   0  0  0  0  0  0  0  0  0  0  0  0
   -0.7500    1.2990    0.0000 C   0  0  0  0  0  0  0  0  0  0  0  0
   -1.5000    0.0000    0.0000 N   0  0  0  0  0  0  0  0  0  0  0  0
   -0.7500   -1.2990    0.0000 C   0  0  0  0  0  0  0  0  0  0  0  0
   -3.4430   -0.7182    0.0000 C   0  0  0  0  0  0  0  0  0  0  0  0
   -4.5577    0.2855    0.0000 C   0  0  0  0  0  0  0  0  0  0  0  0
   -4.2458    1.7527    0.0000 O   0  0  0  0  0  0  0  0  0  0  0  0
   -5.3605    2.7564    0.0000 C   0  0  0  0  0  0  0  0  0  0  0  0
   -9.3284    2.8330    0.0000 C   0  0  0  0  0  0  0  0  0  0  0  0
  -10.4431    3.8367    0.0000 N   0  0  0  0  0  0  0  0  0  0  0  0
  1  2  1  0
  2  3  1  0
  3  4  2  0
  4  5  1  0
  5  6  2  0
  6  7  1  0
  7  8  1  0
  8  9  1  0
  9 10  2  0
 10 11  1  0
 11 12  2  0
 12 13  1  0
 13 14  1  0
 14 15  1  0
 15 16  1  0
 15 17  2  0
 17 18  1  0
 18 19  2  0
 19 20  1  0
 20 21  1  0
 21 22  3  0
 22 23  1  0
 23 24  1  0
 24 25  1  0
 25 26  1  0
 26 27  1  0
 27 28  1  0
 20 29  2  0
 29 30  1  0
 30 31  2  0
 12 32  1  0
 32 33  2  0
 33 34  1  0
 34 35  1  0
  6 36  1  0
 36 37  2  0
 37  3  1  0
 33  9  1  0
 31 14  1  0
 31 18  1  0
 28 23  1  0
M  END
>  <Compound_ID>  (275) 
CHEMBL3678288

>  <Molecule Name>  (275) 
nan

>  <Molecular Weight>  (275) 
497.6

>  <AlogP>  (275) 
4.98

>  <Smiles>  (275) 
COc1ccc(COc2ccc(Cn3c(N)nc4cc(C#CC5CCCCC5)cnc43)cc2OC)cn1

>  <Standard Type>  (275) 
IC50

>  <Standard Relation>  (275) 
'='

>  <Standard Units>  (275) 
nM

>  <Standard Value>  (275) 
65.0

>  <Assay ChEMBL ID>  (275) 
CHEMBL3887112

>  <Assay Description>  (275) 
Inhibition Assay: Reagents and consumables were purchased from Sigma Aldrich, Carna Biosciences, or Caliper Life Sciences. All assay reaction conditions for IC50 determinations were within the linear range with respect to time and enzyme concentration. In a 384 well polypropylene plate, TrkA (0.4 nM, Carna 08-186) was pre-incubated in a 100 mM Hepes-NaOH pH 7.5 buffer containing 0.01% Triton X-100, 10 mM MgCl2, 0.1% BSA, 1 mM DTT, 10 uM sodium orthovanadate and 10 uM beta-glycerophosphate and compound with a concentration of 2.5% DMSO for 15 minutes at room temperature. The reaction was initiated with an equal volume of peptide substrate (Caliper Life Sciences catalog no. 760430) and ATP in the aforementioned buffer. The final concentrations in the reaction were 200 pM TrkA, 1.5 uM peptide substrate and 55 uM ATP (ATP Km). The reaction was incubated at room temperature for 180 minutes and terminated with a buffer containing excess EDTA (100 mM Hepes-NaOH pH 7.5, 0.02% Brij.

>  <BAO Format ID>  (275) 
BAO_0000357

>  <BAO Label>  (275) 
single protein format

>  <Assay Organism>  (275) 
None

>  <Target ChEMBL ID>  (275) 
CHEMBL2815

>  <Target Name>  (275) 
Nerve growth factor receptor Trk-A

>  <Target Organism>  (275) 
Homo sapiens

>  <Target Type>  (275) 
SINGLE PROTEIN

>  <Document ChEMBL ID>  (275) 
CHEMBL3638818

>  <Source Description>  (275) 
BindingDB Database

>  <Document Journal>  (275) 
nan

>  <Document Year>  (275) 
2015.0

>  <Active>  (275) 
1.0

>  <bits>  (275) 
<rdkit.DataStructs.cDataStructs.ExplicitBitVect object at 0x00000159F6037F40>

>  <Group>  (275) 
G2

$$$$

     RDKit          2D

 31 34  0  0  0  0  0  0  0  0999 V2000
   -7.5436   -7.5142    0.0000 N   0  0  0  0  0  0  0  0  0  0  0  0
   -6.1170   -7.0506    0.0000 S   0  0  0  0  0  0  0  0  0  0  0  0
   -5.6535   -8.4772    0.0000 O   0  0  0  0  0  0  0  0  0  0  0  0
   -6.5805   -5.6241    0.0000 O   0  0  0  0  0  0  0  0  0  0  0  0
   -4.6904   -6.5871    0.0000 C   0  0  0  0  0  0  0  0  0  0  0  0
   -4.3786   -5.1199    0.0000 C   0  0  0  0  0  0  0  0  0  0  0  0
   -2.9520   -4.6564    0.0000 N   0  0  0  0  0  0  0  0  0  0  0  0
   -2.6401   -3.1891    0.0000 C   0  0  0  0  0  0  0  0  0  0  0  0
   -3.7548   -2.1855    0.0000 O   0  0  0  0  0  0  0  0  0  0  0  0
   -1.2135   -2.7256    0.0000 C   0  0  0  0  0  0  0  0  0  0  0  0
   -0.0000   -3.6073    0.0000 C   0  0  0  0  0  0  0  0  0  0  0  0
    1.2135   -2.7256    0.0000 N   0  0  0  0  0  0  0  0  0  0  0  0
    0.7500   -1.2990    0.0000 N   0  0  0  0  0  0  0  0  0  0  0  0
    1.5000    0.0000    0.0000 C   0  0  0  0  0  0  0  0  0  0  0  0
    0.7500    1.2990    0.0000 C   0  0  0  0  0  0  0  0  0  0  0  0
   -0.7500    1.2990    0.0000 C   0  0  0  0  0  0  0  0  0  0  0  0
   -1.5000    2.5981    0.0000 N   0  0  0  0  0  0  0  0  0  0  0  0
   -2.9918    2.7549    0.0000 C   0  0  0  0  0  0  0  0  0  0  0  0
   -3.3037    4.2221    0.0000 C   0  0  0  0  0  0  0  0  0  0  0  0
   -2.0046    4.9721    0.0000 C   0  0  0  0  0  0  0  0  0  0  0  0
   -0.8899    3.9684    0.0000 C   0  0  0  0  0  0  0  0  0  0  0  0
    0.5773    4.2803    0.0000 C   0  0  0  0  0  0  0  0  0  0  0  0
    1.5810    3.1655    0.0000 C   0  0  0  0  0  0  0  0  0  0  0  0
    3.0482    3.4774    0.0000 C   0  0  0  0  0  0  0  0  0  0  0  0
    4.0519    2.3627    0.0000 F   0  0  0  0  0  0  0  0  0  0  0  0
    3.5118    4.9040    0.0000 C   0  0  0  0  0  0  0  0  0  0  0  0
    2.5081    6.0187    0.0000 C   0  0  0  0  0  0  0  0  0  0  0  0
    1.0409    5.7068    0.0000 C   0  0  0  0  0  0  0  0  0  0  0  0
    0.0372    6.8216    0.0000 F   0  0  0  0  0  0  0  0  0  0  0  0
   -1.5000    0.0000    0.0000 N   0  0  0  0  0  0  0  0  0  0  0  0
   -0.7500   -1.2990    0.0000 C   0  0  0  0  0  0  0  0  0  0  0  0
  1  2  1  0
  2  3  2  0
  2  4  2  0
  2  5  1  0
  5  6  1  0
  6  7  1  0
  7  8  1  0
  8  9  2  0
  8 10  1  0
 10 11  1  0
 11 12  2  0
 12 13  1  0
 13 14  1  0
 14 15  2  0
 15 16  1  0
 16 17  1  0
 17 18  1  0
 18 19  1  0
 19 20  1  0
 20 21  1  0
 21 22  1  0
 22 23  2  0
 23 24  1  0
 24 25  1  0
 24 26  2  0
 26 27  1  0
 27 28  2  0
 28 29  1  0
 16 30  2  0
 30 31  1  0
 31 10  2  0
 31 13  1  0
 21 17  1  0
 28 22  1  0
M  END
>  <Compound_ID>  (276) 
CHEMBL3675925

>  <Molecule Name>  (276) 
nan

>  <Molecular Weight>  (276) 
450.47

>  <AlogP>  (276) 
1.37

>  <Smiles>  (276) 
NS(=O)(=O)CCNC(=O)c1cnn2ccc(N3CCCC3c3cc(F)ccc3F)nc12

>  <Standard Type>  (276) 
IC50

>  <Standard Relation>  (276) 
'='

>  <Standard Units>  (276) 
nM

>  <Standard Value>  (276) 
1.5

>  <Assay ChEMBL ID>  (276) 
CHEMBL3887070

>  <Assay Description>  (276) 
ELISA Assay: An enzyme-linked immunosorbant assay (ELISA) was used to assess TrkA kinase activity in the presence of inhibitors. Immulon 4HBX 384-well microtiter plates (Thermo part #8755) were coated with a 0.025 mg/mL solution of poly (Glu, Ala, Tyr; 6:3:1; Sigma P3899). Various concentrations of test compound, 2.5 nM TrkA (Invitrogen Corp., histidine-tagged recombinant human TrkA, cytoplasmic domain), and 500 uM ATP were incubated for 25 minutes at ambient temperature in the coated plates while shaking The assay buffer consisted of 25 mM MOPS pH 7.5, 0.005% (v/v) Triton X-100 and 5 mM MgCl2. The reaction mixture was removed from the plate by washing with PBS containing 0.1% (v/v) Tween 20. The phosphorylated reaction product was detected using 0.2 ug/mL of a phosphotyrosine specific monoclonal antibody (clone PY20) conjugated to horseradish peroxidase in conjunction with the TMB Peroxidase Substrate System (KPL).

>  <BAO Format ID>  (276) 
BAO_0000357

>  <BAO Label>  (276) 
single protein format

>  <Assay Organism>  (276) 
None

>  <Target ChEMBL ID>  (276) 
CHEMBL2815

>  <Target Name>  (276) 
Nerve growth factor receptor Trk-A

>  <Target Organism>  (276) 
Homo sapiens

>  <Target Type>  (276) 
SINGLE PROTEIN

>  <Document ChEMBL ID>  (276) 
CHEMBL3638907

>  <Source Description>  (276) 
BindingDB Database

>  <Document Journal>  (276) 
nan

>  <Document Year>  (276) 
2014.0

>  <Active>  (276) 
1.0

>  <bits>  (276) 
<rdkit.DataStructs.cDataStructs.ExplicitBitVect object at 0x00000159F6034D60>

>  <Group>  (276) 
G2

$$$$

     RDKit          2D

 32 35  0  0  0  0  0  0  0  0999 V2000
    2.8337  -14.2406    0.0000 C   0  0  0  0  0  0  0  0  0  0  0  0
    1.9521  -13.0270    0.0000 C   0  0  0  0  0  0  0  0  0  0  0  0
    2.5622  -11.6567    0.0000 C   0  0  0  0  0  0  0  0  0  0  0  0
    0.4603  -13.1838    0.0000 C   0  0  0  0  0  0  0  0  0  0  0  0
   -0.2897  -14.4829    0.0000 C   0  0  0  0  0  0  0  0  0  0  0  0
   -1.7570  -14.1710    0.0000 C   0  0  0  0  0  0  0  0  0  0  0  0
   -1.9137  -12.6792    0.0000 N   0  0  0  0  0  0  0  0  0  0  0  0
   -0.5434  -12.0691    0.0000 N   0  0  0  0  0  0  0  0  0  0  0  0
   -0.2316  -10.6019    0.0000 C   0  0  0  0  0  0  0  0  0  0  0  0
   -1.3463   -9.5982    0.0000 C   0  0  0  0  0  0  0  0  0  0  0  0
   -2.7729  -10.0617    0.0000 O   0  0  0  0  0  0  0  0  0  0  0  0
   -1.0344   -8.1310    0.0000 N   0  0  0  0  0  0  0  0  0  0  0  0
   -2.1491   -7.1273    0.0000 C   0  0  0  0  0  0  0  0  0  0  0  0
   -1.8373   -5.6601    0.0000 C   0  0  0  0  0  0  0  0  0  0  0  0
   -2.9520   -4.6564    0.0000 C   0  0  0  0  0  0  0  0  0  0  0  0
   -2.6401   -3.1891    0.0000 C   0  0  0  0  0  0  0  0  0  0  0  0
   -3.7548   -2.1855    0.0000 O   0  0  0  0  0  0  0  0  0  0  0  0
   -1.2135   -2.7256    0.0000 C   0  0  0  0  0  0  0  0  0  0  0  0
   -0.0000   -3.6073    0.0000 C   0  0  0  0  0  0  0  0  0  0  0  0
    1.2135   -2.7256    0.0000 N   0  0  0  0  0  0  0  0  0  0  0  0
    2.6401   -3.1891    0.0000 C   0  0  0  0  0  0  0  0  0  0  0  0
    2.9520   -4.6564    0.0000 C   0  0  0  0  0  0  0  0  0  0  0  0
    3.7548   -2.1855    0.0000 C   0  0  0  0  0  0  0  0  0  0  0  0
    0.7500   -1.2990    0.0000 C   0  0  0  0  0  0  0  0  0  0  0  0
    1.5000    0.0000    0.0000 C   0  0  0  0  0  0  0  0  0  0  0  0
    0.7500    1.2990    0.0000 C   0  0  0  0  0  0  0  0  0  0  0  0
   -0.7500    1.2990    0.0000 N   0  0  0  0  0  0  0  0  0  0  0  0
   -1.5000    0.0000    0.0000 C   0  0  0  0  0  0  0  0  0  0  0  0
   -0.7500   -1.2990    0.0000 C   0  0  0  0  0  0  0  0  0  0  0  0
   -4.3786   -5.1199    0.0000 C   0  0  0  0  0  0  0  0  0  0  0  0
   -4.6904   -6.5871    0.0000 C   0  0  0  0  0  0  0  0  0  0  0  0
   -3.5757   -7.5908    0.0000 N   0  0  0  0  0  0  0  0  0  0  0  0
  1  2  1  0
  2  3  1  0
  2  4  1  0
  4  5  2  0
  5  6  1  0
  6  7  2  0
  7  8  1  0
  8  9  1  0
  9 10  1  0
 10 11  2  0
 10 12  1  0
 12 13  1  0
 13 14  2  0
 14 15  1  0
 15 16  1  0
 16 17  2  0
 16 18  1  0
 18 19  2  0
 19 20  1  0
 20 21  1  0
 21 22  1  0
 21 23  1  0
 20 24  1  0
 24 25  2  0
 25 26  1  0
 26 27  2  0
 27 28  1  0
 28 29  2  0
 15 30  2  0
 30 31  1  0
 31 32  2  0
  8  4  1  0
 32 13  1  0
 29 18  1  0
 29 24  1  0
M  END
>  <Compound_ID>  (277) 
CHEMBL3953187

>  <Molecule Name>  (277) 
nan

>  <Molecular Weight>  (277) 
430.51

>  <AlogP>  (277) 
4.2

>  <Smiles>  (277) 
CC(C)c1ccnn1CC(=O)Nc1cc(C(=O)c2cn(C(C)C)c3ccncc23)ccn1

>  <Standard Type>  (277) 
IC50

>  <Standard Relation>  (277) 
'='

>  <Standard Units>  (277) 
nM

>  <Standard Value>  (277) 
96.8

>  <Assay ChEMBL ID>  (277) 
CHEMBL3887111

>  <Assay Description>  (277) 
HTRF Assay: Isolated TRK Enzyme assays use the HTRF KinEASE-TK kit (Cisbio Cat#62TK0PEJ) with recombinant His-tagged cytoplasmic domains of each TRK receptor sourced from Invitrogen (see table below). This activity-assay measures the phosphorylation of tyrosine residues within a substrate from the HTRF kit which has been validated by Cisbio for a variety of tyrosine kinases including the TRK receptors.Assay Details: Invitrogen Amino FAC FAC Assay ReactionTarget Cat# acids enzyme ATP TimeTRKA PV3144 aa 441-4 nM 40 uM 35 min (NTRK1) 796 TRKB PV3616 aa 526-1 nM 1.4 uM 40 min (NTRK2) 838 TRKC PV3617 aa 510- 10 nM 15 uM 30 min (NTRK3) 8250.5 mM stock solutions of test compounds are prepared and serially diluted in 100% DMSO. A standard curve using the compound of Example 135 disclosed in WO2005/116035 of 150 uM is also prepared on each test plate. High percentage effect (HPE) is defined by 150 uM.

>  <BAO Format ID>  (277) 
BAO_0000357

>  <BAO Label>  (277) 
single protein format

>  <Assay Organism>  (277) 
None

>  <Target ChEMBL ID>  (277) 
CHEMBL2815

>  <Target Name>  (277) 
Nerve growth factor receptor Trk-A

>  <Target Organism>  (277) 
Homo sapiens

>  <Target Type>  (277) 
SINGLE PROTEIN

>  <Document ChEMBL ID>  (277) 
CHEMBL3886170

>  <Source Description>  (277) 
BindingDB Database

>  <Document Journal>  (277) 
nan

>  <Document Year>  (277) 
2015.0

>  <Active>  (277) 
1.0

>  <bits>  (277) 
<rdkit.DataStructs.cDataStructs.ExplicitBitVect object at 0x00000159F6036490>

>  <Group>  (277) 
G2

$$$$

     RDKit          2D

 48 53  0  0  0  0  0  0  0  0999 V2000
   -2.0882   -8.4404    0.0000 C   0  0  0  0  0  0  0  0  0  0  0  0
   -2.6983   -7.0701    0.0000 C   0  0  0  0  0  0  0  0  0  0  0  0
   -1.9483   -5.7711    0.0000 N   0  0  0  0  0  0  0  0  0  0  0  0
   -2.9520   -4.6564    0.0000 C   0  0  0  0  0  0  0  0  0  0  0  0
   -2.6401   -3.1891    0.0000 C   0  0  0  0  0  0  0  0  0  0  0  0
   -1.2135   -2.7256    0.0000 C   0  0  0  0  0  0  0  0  0  0  0  0
   -0.0000   -3.6073    0.0000 C   0  0  0  0  0  0  0  0  0  0  0  0
    0.0000   -5.1073    0.0000 O   0  0  0  0  0  0  0  0  0  0  0  0
    1.2135   -2.7256    0.0000 N   0  0  0  0  0  0  0  0  0  0  0  0
    0.7500   -1.2990    0.0000 C   0  0  0  0  0  0  0  0  0  0  0  0
    1.5000    0.0000    0.0000 C   0  0  0  0  0  0  0  0  0  0  0  0
    0.7500    1.2990    0.0000 C   0  0  0  0  0  0  0  0  0  0  0  0
    1.5000    2.5981    0.0000 N   0  0  0  0  0  0  0  0  0  0  0  0
    3.0000    2.5981    0.0000 C   0  0  0  0  0  0  0  0  0  0  0  0
    3.7500    1.2990    0.0000 C   0  0  0  0  0  0  0  0  0  0  0  0
    5.2500    1.2990    0.0000 C   0  0  0  0  0  0  0  0  0  0  0  0
    6.0000    2.5981    0.0000 C   0  0  0  0  0  0  0  0  0  0  0  0
    5.2500    3.8971    0.0000 C   0  0  0  0  0  0  0  0  0  0  0  0
    6.0000    5.1962    0.0000 N   0  0  0  0  0  0  0  0  0  0  0  0
    7.5000    5.1962    0.0000 C   0  0  0  0  0  0  0  0  0  0  0  0
    8.2500    3.8971    0.0000 O   0  0  0  0  0  0  0  0  0  0  0  0
    8.2500    6.4952    0.0000 C   0  0  0  0  0  0  0  0  0  0  0  0
    9.7500    6.4952    0.0000 C   0  0  0  0  0  0  0  0  0  0  0  0
   10.5000    7.7942    0.0000 C   0  0  0  0  0  0  0  0  0  0  0  0
   12.0000    7.7942    0.0000 N   0  0  0  0  0  0  0  0  0  0  0  0
   12.7500    6.4952    0.0000 C   0  0  0  0  0  0  0  0  0  0  0  0
   14.2500    6.4952    0.0000 C   0  0  0  0  0  0  0  0  0  0  0  0
   15.0000    7.7942    0.0000 N   0  0  0  0  0  0  0  0  0  0  0  0
   16.5000    7.7942    0.0000 C   0  0  0  0  0  0  0  0  0  0  0  0
   14.2500    9.0933    0.0000 C   0  0  0  0  0  0  0  0  0  0  0  0
   12.7500    9.0933    0.0000 C   0  0  0  0  0  0  0  0  0  0  0  0
    9.7500    9.0933    0.0000 C   0  0  0  0  0  0  0  0  0  0  0  0
    8.2500    9.0933    0.0000 C   0  0  0  0  0  0  0  0  0  0  0  0
    7.5000   10.3923    0.0000 C   0  0  0  0  0  0  0  0  0  0  0  0
    6.7500   11.6913    0.0000 F   0  0  0  0  0  0  0  0  0  0  0  0
    8.7990   11.1423    0.0000 F   0  0  0  0  0  0  0  0  0  0  0  0
    6.2010    9.6423    0.0000 F   0  0  0  0  0  0  0  0  0  0  0  0
    7.5000    7.7942    0.0000 C   0  0  0  0  0  0  0  0  0  0  0  0
    3.7500    3.8971    0.0000 C   0  0  0  0  0  0  0  0  0  0  0  0
   -0.7500    1.2990    0.0000 C   0  0  0  0  0  0  0  0  0  0  0  0
   -1.5000    0.0000    0.0000 C   0  0  0  0  0  0  0  0  0  0  0  0
   -0.7500   -1.2990    0.0000 C   0  0  0  0  0  0  0  0  0  0  0  0
   -4.3223   -5.2665    0.0000 C   0  0  0  0  0  0  0  0  0  0  0  0
   -5.6213   -4.5165    0.0000 C   0  0  0  0  0  0  0  0  0  0  0  0
   -4.1655   -6.7583    0.0000 C   0  0  0  0  0  0  0  0  0  0  0  0
   -5.2802   -7.7620    0.0000 C   0  0  0  0  0  0  0  0  0  0  0  0
   -4.9684   -9.2292    0.0000 O   0  0  0  0  0  0  0  0  0  0  0  0
   -6.7068   -7.2984    0.0000 O   0  0  0  0  0  0  0  0  0  0  0  0
  1  2  1  0
  2  3  1  0
  3  4  1  0
  4  5  1  0
  5  6  2  0
  6  7  1  0
  7  8  2  0
  7  9  1  0
  9 10  1  0
 10 11  2  0
 11 12  1  0
 12 13  1  0
 13 14  1  0
 14 15  2  0
 15 16  1  0
 16 17  2  0
 17 18  1  0
 18 19  1  0
 19 20  1  0
 20 21  2  0
 20 22  1  0
 22 23  2  0
 23 24  1  0
 24 25  1  0
 25 26  1  0
 26 27  1  0
 27 28  1  0
 28 29  1  0
 28 30  1  0
 30 31  1  0
 24 32  2  0
 32 33  1  0
 33 34  1  0
 34 35  1  0
 34 36  1  0
 34 37  1  0
 33 38  2  0
 18 39  2  0
 12 40  2  0
 40 41  1  0
 41 42  2  0
  4 43  2  0
 43 44  1  0
 43 45  1  0
 45 46  1  0
 46 47  2  0
 46 48  1  0
 45  2  2  0
 42  6  1  0
 42 10  1  0
 39 14  1  0
 38 22  1  0
 31 25  1  0
M  END
>  <Compound_ID>  (278) 
CHEMBL2037222

>  <Molecule Name>  (278) 
nan

>  <Molecular Weight>  (278) 
658.68

>  <AlogP>  (278) 
6.59

>  <Smiles>  (278) 
Cc1[nH]c(/C=C2\C(=O)Nc3cc(Nc4cccc(NC(=O)c5cc(N6CCN(C)CC6)cc(C(F)(F)F)c5)c4)ccc32)c(C)c1C(=O)O

>  <Standard Type>  (278) 
IC50

>  <Standard Relation>  (278) 
'='

>  <Standard Units>  (278) 
nM

>  <Standard Value>  (278) 
9.0

>  <Assay ChEMBL ID>  (278) 
CHEMBL2038860

>  <Assay Description>  (278) 
Inhibition of TRKA by HTRF assay

>  <BAO Format ID>  (278) 
BAO_0000357

>  <BAO Label>  (278) 
single protein format

>  <Assay Organism>  (278) 
None

>  <Target ChEMBL ID>  (278) 
CHEMBL2815

>  <Target Name>  (278) 
Nerve growth factor receptor Trk-A

>  <Target Organism>  (278) 
Homo sapiens

>  <Target Type>  (278) 
SINGLE PROTEIN

>  <Document ChEMBL ID>  (278) 
CHEMBL2034853

>  <Source Description>  (278) 
Scientific Literature

>  <Document Journal>  (278) 
ACS Med Chem Lett

>  <Document Year>  (278) 
2012.0

>  <Active>  (278) 
1.0

>  <bits>  (278) 
<rdkit.DataStructs.cDataStructs.ExplicitBitVect object at 0x00000159F6036960>

>  <Group>  (278) 
G2

$$$$

     RDKit          2D

 33 36  0  0  0  0  0  0  0  0999 V2000
   -2.9520   -4.6564    0.0000 C   0  0  0  0  0  0  0  0  0  0  0  0
   -2.6401   -3.1891    0.0000 C   0  0  0  0  0  0  0  0  0  0  0  0
   -3.7548   -2.1855    0.0000 C   0  0  0  0  0  0  0  0  0  0  0  0
   -1.2135   -2.7256    0.0000 N   0  0  0  0  0  0  0  0  0  0  0  0
   -0.0000   -3.6073    0.0000 C   0  0  0  0  0  0  0  0  0  0  0  0
    1.2135   -2.7256    0.0000 C   0  0  0  0  0  0  0  0  0  0  0  0
    2.6401   -3.1891    0.0000 C   0  0  0  0  0  0  0  0  0  0  0  0
    3.7548   -2.1855    0.0000 O   0  0  0  0  0  0  0  0  0  0  0  0
    2.9520   -4.6564    0.0000 C   0  0  0  0  0  0  0  0  0  0  0  0
    1.8373   -5.6601    0.0000 C   0  0  0  0  0  0  0  0  0  0  0  0
    2.1491   -7.1273    0.0000 C   0  0  0  0  0  0  0  0  0  0  0  0
    3.5757   -7.5908    0.0000 N   0  0  0  0  0  0  0  0  0  0  0  0
    4.6904   -6.5871    0.0000 C   0  0  0  0  0  0  0  0  0  0  0  0
    6.1170   -7.0506    0.0000 N   0  0  0  0  0  0  0  0  0  0  0  0
    6.4289   -8.5179    0.0000 C   0  0  0  0  0  0  0  0  0  0  0  0
    5.3142   -9.5216    0.0000 O   0  0  0  0  0  0  0  0  0  0  0  0
    7.8555   -8.9814    0.0000 C   0  0  0  0  0  0  0  0  0  0  0  0
    8.1673  -10.4486    0.0000 N   0  0  0  0  0  0  0  0  0  0  0  0
    9.5377  -11.0587    0.0000 C   0  0  0  0  0  0  0  0  0  0  0  0
    9.3809  -12.5505    0.0000 C   0  0  0  0  0  0  0  0  0  0  0  0
   10.4956  -13.5542    0.0000 C   0  0  0  0  0  0  0  0  0  0  0  0
   11.6103  -14.5579    0.0000 F   0  0  0  0  0  0  0  0  0  0  0  0
    9.4919  -14.6689    0.0000 F   0  0  0  0  0  0  0  0  0  0  0  0
   11.4993  -12.4395    0.0000 F   0  0  0  0  0  0  0  0  0  0  0  0
    7.9136  -12.8624    0.0000 N   0  0  0  0  0  0  0  0  0  0  0  0
    7.1636  -11.5633    0.0000 N   0  0  0  0  0  0  0  0  0  0  0  0
    4.3786   -5.1199    0.0000 C   0  0  0  0  0  0  0  0  0  0  0  0
    0.7500   -1.2990    0.0000 C   0  0  0  0  0  0  0  0  0  0  0  0
    1.5000    0.0000    0.0000 C   0  0  0  0  0  0  0  0  0  0  0  0
    0.7500    1.2990    0.0000 N   0  0  0  0  0  0  0  0  0  0  0  0
   -0.7500    1.2990    0.0000 C   0  0  0  0  0  0  0  0  0  0  0  0
   -1.5000    0.0000    0.0000 C   0  0  0  0  0  0  0  0  0  0  0  0
   -0.7500   -1.2990    0.0000 C   0  0  0  0  0  0  0  0  0  0  0  0
  1  2  1  0
  2  3  1  0
  2  4  1  0
  4  5  1  0
  5  6  2  0
  6  7  1  0
  7  8  2  0
  7  9  1  0
  9 10  2  0
 10 11  1  0
 11 12  2  0
 12 13  1  0
 13 14  1  0
 14 15  1  0
 15 16  2  0
 15 17  1  0
 17 18  1  0
 18 19  1  0
 19 20  2  0
 20 21  1  0
 21 22  1  0
 21 23  1  0
 21 24  1  0
 20 25  1  0
 25 26  2  0
 13 27  2  0
  6 28  1  0
 28 29  2  0
 29 30  1  0
 30 31  2  0
 31 32  1  0
 32 33  2  0
 33  4  1  0
 27  9  1  0
 33 28  1  0
 26 18  1  0
M  END
>  <Compound_ID>  (279) 
CHEMBL3964869

>  <Molecule Name>  (279) 
nan

>  <Molecular Weight>  (279) 
457.42

>  <AlogP>  (279) 
3.49

>  <Smiles>  (279) 
CC(C)n1cc(C(=O)c2ccnc(NC(=O)Cn3cc(C(F)(F)F)nn3)c2)c2cnccc21

>  <Standard Type>  (279) 
IC50

>  <Standard Relation>  (279) 
'='

>  <Standard Units>  (279) 
nM

>  <Standard Value>  (279) 
10.7

>  <Assay ChEMBL ID>  (279) 
CHEMBL3887111

>  <Assay Description>  (279) 
HTRF Assay: Isolated TRK Enzyme assays use the HTRF KinEASE-TK kit (Cisbio Cat#62TK0PEJ) with recombinant His-tagged cytoplasmic domains of each TRK receptor sourced from Invitrogen (see table below). This activity-assay measures the phosphorylation of tyrosine residues within a substrate from the HTRF kit which has been validated by Cisbio for a variety of tyrosine kinases including the TRK receptors.Assay Details: Invitrogen Amino FAC FAC Assay ReactionTarget Cat# acids enzyme ATP TimeTRKA PV3144 aa 441-4 nM 40 uM 35 min (NTRK1) 796 TRKB PV3616 aa 526-1 nM 1.4 uM 40 min (NTRK2) 838 TRKC PV3617 aa 510- 10 nM 15 uM 30 min (NTRK3) 8250.5 mM stock solutions of test compounds are prepared and serially diluted in 100% DMSO. A standard curve using the compound of Example 135 disclosed in WO2005/116035 of 150 uM is also prepared on each test plate. High percentage effect (HPE) is defined by 150 uM.

>  <BAO Format ID>  (279) 
BAO_0000357

>  <BAO Label>  (279) 
single protein format

>  <Assay Organism>  (279) 
None

>  <Target ChEMBL ID>  (279) 
CHEMBL2815

>  <Target Name>  (279) 
Nerve growth factor receptor Trk-A

>  <Target Organism>  (279) 
Homo sapiens

>  <Target Type>  (279) 
SINGLE PROTEIN

>  <Document ChEMBL ID>  (279) 
CHEMBL3886170

>  <Source Description>  (279) 
BindingDB Database

>  <Document Journal>  (279) 
nan

>  <Document Year>  (279) 
2015.0

>  <Active>  (279) 
1.0

>  <bits>  (279) 
<rdkit.DataStructs.cDataStructs.ExplicitBitVect object at 0x00000159F6036F80>

>  <Group>  (279) 
G2

$$$$

     RDKit          2D

 31 34  0  0  0  0  0  0  0  0999 V2000
   -2.7729  -10.0617    0.0000 O   0  0  0  0  0  0  0  0  0  0  0  0
   -1.3463   -9.5982    0.0000 C   0  0  0  0  0  0  0  0  0  0  0  0
   -0.2316  -10.6019    0.0000 C   0  0  0  0  0  0  0  0  0  0  0  0
   -0.5434  -12.0691    0.0000 C   0  0  0  0  0  0  0  0  0  0  0  0
   -1.9700  -12.5326    0.0000 C   0  0  0  0  0  0  0  0  0  0  0  0
   -2.2819  -13.9999    0.0000 C   0  0  0  0  0  0  0  0  0  0  0  0
   -1.1672  -15.0036    0.0000 C   0  0  0  0  0  0  0  0  0  0  0  0
   -1.4790  -16.4708    0.0000 Cl  0  0  0  0  0  0  0  0  0  0  0  0
    0.2594  -14.5400    0.0000 C   0  0  0  0  0  0  0  0  0  0  0  0
    0.5713  -13.0728    0.0000 C   0  0  0  0  0  0  0  0  0  0  0  0
   -1.0344   -8.1310    0.0000 N   0  0  0  0  0  0  0  0  0  0  0  0
   -2.1491   -7.1273    0.0000 C   0  0  0  0  0  0  0  0  0  0  0  0
   -1.8373   -5.6601    0.0000 C   0  0  0  0  0  0  0  0  0  0  0  0
   -2.9520   -4.6564    0.0000 C   0  0  0  0  0  0  0  0  0  0  0  0
   -2.6401   -3.1891    0.0000 C   0  0  0  0  0  0  0  0  0  0  0  0
   -3.7548   -2.1855    0.0000 O   0  0  0  0  0  0  0  0  0  0  0  0
   -1.2135   -2.7256    0.0000 C   0  0  0  0  0  0  0  0  0  0  0  0
   -0.0000   -3.6073    0.0000 C   0  0  0  0  0  0  0  0  0  0  0  0
    1.2135   -2.7256    0.0000 N   0  0  0  0  0  0  0  0  0  0  0  0
    2.6401   -3.1891    0.0000 C   0  0  0  0  0  0  0  0  0  0  0  0
    2.9520   -4.6564    0.0000 C   0  0  0  0  0  0  0  0  0  0  0  0
    4.3786   -5.1199    0.0000 O   0  0  0  0  0  0  0  0  0  0  0  0
    0.7500   -1.2990    0.0000 C   0  0  0  0  0  0  0  0  0  0  0  0
    1.5000    0.0000    0.0000 C   0  0  0  0  0  0  0  0  0  0  0  0
    0.7500    1.2990    0.0000 C   0  0  0  0  0  0  0  0  0  0  0  0
   -0.7500    1.2990    0.0000 N   0  0  0  0  0  0  0  0  0  0  0  0
   -1.5000    0.0000    0.0000 C   0  0  0  0  0  0  0  0  0  0  0  0
   -0.7500   -1.2990    0.0000 C   0  0  0  0  0  0  0  0  0  0  0  0
   -4.3786   -5.1199    0.0000 C   0  0  0  0  0  0  0  0  0  0  0  0
   -4.6904   -6.5871    0.0000 C   0  0  0  0  0  0  0  0  0  0  0  0
   -3.5757   -7.5908    0.0000 N   0  0  0  0  0  0  0  0  0  0  0  0
  1  2  2  0
  2  3  1  0
  3  4  1  0
  4  5  2  0
  5  6  1  0
  6  7  2  0
  7  8  1  0
  7  9  1  0
  9 10  2  0
  2 11  1  0
 11 12  1  0
 12 13  2  0
 13 14  1  0
 14 15  1  0
 15 16  2  0
 15 17  1  0
 17 18  2  0
 18 19  1  0
 19 20  1  0
 20 21  1  0
 21 22  1  0
 19 23  1  0
 23 24  2  0
 24 25  1  0
 25 26  2  0
 26 27  1  0
 27 28  2  0
 14 29  2  0
 29 30  1  0
 30 31  2  0
 10  4  1  0
 31 12  1  0
 28 17  1  0
 28 23  1  0
M  END
>  <Compound_ID>  (280) 
CHEMBL3959171

>  <Molecule Name>  (280) 
nan

>  <Molecular Weight>  (280) 
434.88

>  <AlogP>  (280) 
3.49

>  <Smiles>  (280) 
O=C(Cc1ccc(Cl)cc1)Nc1cc(C(=O)c2cn(CCO)c3ccncc23)ccn1

>  <Standard Type>  (280) 
IC50

>  <Standard Relation>  (280) 
'='

>  <Standard Units>  (280) 
nM

>  <Standard Value>  (280) 
59.4

>  <Assay ChEMBL ID>  (280) 
CHEMBL3887111

>  <Assay Description>  (280) 
HTRF Assay: Isolated TRK Enzyme assays use the HTRF KinEASE-TK kit (Cisbio Cat#62TK0PEJ) with recombinant His-tagged cytoplasmic domains of each TRK receptor sourced from Invitrogen (see table below). This activity-assay measures the phosphorylation of tyrosine residues within a substrate from the HTRF kit which has been validated by Cisbio for a variety of tyrosine kinases including the TRK receptors.Assay Details: Invitrogen Amino FAC FAC Assay ReactionTarget Cat# acids enzyme ATP TimeTRKA PV3144 aa 441-4 nM 40 uM 35 min (NTRK1) 796 TRKB PV3616 aa 526-1 nM 1.4 uM 40 min (NTRK2) 838 TRKC PV3617 aa 510- 10 nM 15 uM 30 min (NTRK3) 8250.5 mM stock solutions of test compounds are prepared and serially diluted in 100% DMSO. A standard curve using the compound of Example 135 disclosed in WO2005/116035 of 150 uM is also prepared on each test plate. High percentage effect (HPE) is defined by 150 uM.

>  <BAO Format ID>  (280) 
BAO_0000357

>  <BAO Label>  (280) 
single protein format

>  <Assay Organism>  (280) 
None

>  <Target ChEMBL ID>  (280) 
CHEMBL2815

>  <Target Name>  (280) 
Nerve growth factor receptor Trk-A

>  <Target Organism>  (280) 
Homo sapiens

>  <Target Type>  (280) 
SINGLE PROTEIN

>  <Document ChEMBL ID>  (280) 
CHEMBL3886170

>  <Source Description>  (280) 
BindingDB Database

>  <Document Journal>  (280) 
nan

>  <Document Year>  (280) 
2015.0

>  <Active>  (280) 
1.0

>  <bits>  (280) 
<rdkit.DataStructs.cDataStructs.ExplicitBitVect object at 0x00000159F6035BD0>

>  <Group>  (280) 
G2

$$$$

     RDKit          2D

 33 36  0  0  0  0  0  0  0  0999 V2000
   -2.9520   -4.6564    0.0000 C   0  0  0  0  0  0  0  0  0  0  0  0
   -2.6401   -3.1891    0.0000 C   0  0  0  0  0  0  0  0  0  0  0  0
   -3.7548   -2.1855    0.0000 C   0  0  0  0  0  0  0  0  0  0  0  0
   -1.2135   -2.7256    0.0000 N   0  0  0  0  0  0  0  0  0  0  0  0
   -0.0000   -3.6073    0.0000 C   0  0  0  0  0  0  0  0  0  0  0  0
    1.2135   -2.7256    0.0000 C   0  0  0  0  0  0  0  0  0  0  0  0
    2.6401   -3.1891    0.0000 C   0  0  0  0  0  0  0  0  0  0  0  0
    3.7548   -2.1855    0.0000 O   0  0  0  0  0  0  0  0  0  0  0  0
    2.9520   -4.6564    0.0000 C   0  0  0  0  0  0  0  0  0  0  0  0
    1.8373   -5.6601    0.0000 C   0  0  0  0  0  0  0  0  0  0  0  0
    2.1491   -7.1273    0.0000 C   0  0  0  0  0  0  0  0  0  0  0  0
    1.0344   -8.1310    0.0000 N   0  0  0  0  0  0  0  0  0  0  0  0
   -0.3922   -7.6675    0.0000 C   0  0  0  0  0  0  0  0  0  0  0  0
   -0.7040   -6.2002    0.0000 O   0  0  0  0  0  0  0  0  0  0  0  0
   -1.5069   -8.6712    0.0000 C   0  0  0  0  0  0  0  0  0  0  0  0
   -2.9335   -8.2076    0.0000 N   0  0  0  0  0  0  0  0  0  0  0  0
   -4.1470   -9.0893    0.0000 C   0  0  0  0  0  0  0  0  0  0  0  0
   -5.3605   -8.2076    0.0000 C   0  0  0  0  0  0  0  0  0  0  0  0
   -6.7871   -8.6712    0.0000 C   0  0  0  0  0  0  0  0  0  0  0  0
   -8.2137   -9.1347    0.0000 F   0  0  0  0  0  0  0  0  0  0  0  0
   -7.2506   -7.2446    0.0000 F   0  0  0  0  0  0  0  0  0  0  0  0
   -6.3236  -10.0977    0.0000 F   0  0  0  0  0  0  0  0  0  0  0  0
   -4.8970   -6.7810    0.0000 C   0  0  0  0  0  0  0  0  0  0  0  0
   -3.3970   -6.7810    0.0000 N   0  0  0  0  0  0  0  0  0  0  0  0
    3.5757   -7.5908    0.0000 C   0  0  0  0  0  0  0  0  0  0  0  0
    4.6904   -6.5871    0.0000 C   0  0  0  0  0  0  0  0  0  0  0  0
    4.3786   -5.1199    0.0000 N   0  0  0  0  0  0  0  0  0  0  0  0
    0.7500   -1.2990    0.0000 C   0  0  0  0  0  0  0  0  0  0  0  0
    1.5000    0.0000    0.0000 C   0  0  0  0  0  0  0  0  0  0  0  0
    0.7500    1.2990    0.0000 N   0  0  0  0  0  0  0  0  0  0  0  0
   -0.7500    1.2990    0.0000 C   0  0  0  0  0  0  0  0  0  0  0  0
   -1.5000    0.0000    0.0000 C   0  0  0  0  0  0  0  0  0  0  0  0
   -0.7500   -1.2990    0.0000 C   0  0  0  0  0  0  0  0  0  0  0  0
  1  2  1  0
  2  3  1  0
  2  4  1  0
  4  5  1  0
  5  6  2  0
  6  7  1  0
  7  8  2  0
  7  9  1  0
  9 10  2  0
 10 11  1  0
 11 12  1  0
 12 13  1  0
 13 14  2  0
 13 15  1  0
 15 16  1  0
 16 17  1  0
 17 18  2  0
 18 19  1  0
 19 20  1  0
 19 21  1  0
 19 22  1  0
 18 23  1  0
 23 24  2  0
 11 25  2  0
 25 26  1  0
 26 27  2  0
  6 28  1  0
 28 29  2  0
 29 30  1  0
 30 31  2  0
 31 32  1  0
 32 33  2  0
 33  4  1  0
 27  9  1  0
 33 28  1  0
 24 16  1  0
M  END
>  <Compound_ID>  (281) 
CHEMBL3906285

>  <Molecule Name>  (281) 
nan

>  <Molecular Weight>  (281) 
456.43

>  <AlogP>  (281) 
4.1

>  <Smiles>  (281) 
CC(C)n1cc(C(=O)c2cc(NC(=O)Cn3cc(C(F)(F)F)cn3)ccn2)c2cnccc21

>  <Standard Type>  (281) 
IC50

>  <Standard Relation>  (281) 
'='

>  <Standard Units>  (281) 
nM

>  <Standard Value>  (281) 
13.3

>  <Assay ChEMBL ID>  (281) 
CHEMBL3887111

>  <Assay Description>  (281) 
HTRF Assay: Isolated TRK Enzyme assays use the HTRF KinEASE-TK kit (Cisbio Cat#62TK0PEJ) with recombinant His-tagged cytoplasmic domains of each TRK receptor sourced from Invitrogen (see table below). This activity-assay measures the phosphorylation of tyrosine residues within a substrate from the HTRF kit which has been validated by Cisbio for a variety of tyrosine kinases including the TRK receptors.Assay Details: Invitrogen Amino FAC FAC Assay ReactionTarget Cat# acids enzyme ATP TimeTRKA PV3144 aa 441-4 nM 40 uM 35 min (NTRK1) 796 TRKB PV3616 aa 526-1 nM 1.4 uM 40 min (NTRK2) 838 TRKC PV3617 aa 510- 10 nM 15 uM 30 min (NTRK3) 8250.5 mM stock solutions of test compounds are prepared and serially diluted in 100% DMSO. A standard curve using the compound of Example 135 disclosed in WO2005/116035 of 150 uM is also prepared on each test plate. High percentage effect (HPE) is defined by 150 uM.

>  <BAO Format ID>  (281) 
BAO_0000357

>  <BAO Label>  (281) 
single protein format

>  <Assay Organism>  (281) 
None

>  <Target ChEMBL ID>  (281) 
CHEMBL2815

>  <Target Name>  (281) 
Nerve growth factor receptor Trk-A

>  <Target Organism>  (281) 
Homo sapiens

>  <Target Type>  (281) 
SINGLE PROTEIN

>  <Document ChEMBL ID>  (281) 
CHEMBL3886170

>  <Source Description>  (281) 
BindingDB Database

>  <Document Journal>  (281) 
nan

>  <Document Year>  (281) 
2015.0

>  <Active>  (281) 
1.0

>  <bits>  (281) 
<rdkit.DataStructs.cDataStructs.ExplicitBitVect object at 0x00000159F6036730>

>  <Group>  (281) 
G2

$$$$

     RDKit          2D

 34 38  0  0  0  0  0  0  0  0999 V2000
   -2.1766   -4.6157    0.0000 C   0  0  0  0  0  0  0  0  0  0  0  0
   -2.6401   -3.1891    0.0000 C   0  0  0  0  0  0  0  0  0  0  0  0
   -3.1036   -1.7626    0.0000 C   0  0  0  0  0  0  0  0  0  0  0  0
   -4.0667   -3.6527    0.0000 C   0  0  0  0  0  0  0  0  0  0  0  0
   -5.1814   -2.6490    0.0000 O   0  0  0  0  0  0  0  0  0  0  0  0
   -1.2135   -2.7256    0.0000 N   0  0  0  0  0  0  0  0  0  0  0  0
   -0.0000   -3.6073    0.0000 C   0  0  0  0  0  0  0  0  0  0  0  0
    1.2135   -2.7256    0.0000 C   0  0  0  0  0  0  0  0  0  0  0  0
    2.6401   -3.1891    0.0000 C   0  0  0  0  0  0  0  0  0  0  0  0
    3.7548   -2.1855    0.0000 O   0  0  0  0  0  0  0  0  0  0  0  0
    2.9520   -4.6564    0.0000 C   0  0  0  0  0  0  0  0  0  0  0  0
    1.8373   -5.6601    0.0000 C   0  0  0  0  0  0  0  0  0  0  0  0
    2.1491   -7.1273    0.0000 N   0  0  0  0  0  0  0  0  0  0  0  0
    3.5757   -7.5908    0.0000 C   0  0  0  0  0  0  0  0  0  0  0  0
    4.6904   -6.5871    0.0000 C   0  0  0  0  0  0  0  0  0  0  0  0
    6.1170   -7.0506    0.0000 N   0  0  0  0  0  0  0  0  0  0  0  0
    6.4289   -8.5179    0.0000 C   0  0  0  0  0  0  0  0  0  0  0  0
    5.3142   -9.5216    0.0000 O   0  0  0  0  0  0  0  0  0  0  0  0
    7.8555   -8.9814    0.0000 C   0  0  0  0  0  0  0  0  0  0  0  0
    8.1673  -10.4486    0.0000 N   0  0  0  0  0  0  0  0  0  0  0  0
    9.5377  -11.0587    0.0000 C   0  0  0  0  0  0  0  0  0  0  0  0
    9.3809  -12.5505    0.0000 C   0  0  0  0  0  0  0  0  0  0  0  0
   10.4956  -13.5542    0.0000 C   0  0  0  0  0  0  0  0  0  0  0  0
   11.9628  -13.8661    0.0000 C   0  0  0  0  0  0  0  0  0  0  0  0
   10.9591  -14.9808    0.0000 C   0  0  0  0  0  0  0  0  0  0  0  0
    7.9136  -12.8624    0.0000 N   0  0  0  0  0  0  0  0  0  0  0  0
    7.1636  -11.5633    0.0000 N   0  0  0  0  0  0  0  0  0  0  0  0
    4.3786   -5.1199    0.0000 C   0  0  0  0  0  0  0  0  0  0  0  0
    0.7500   -1.2990    0.0000 C   0  0  0  0  0  0  0  0  0  0  0  0
    1.5000    0.0000    0.0000 C   0  0  0  0  0  0  0  0  0  0  0  0
    0.7500    1.2990    0.0000 N   0  0  0  0  0  0  0  0  0  0  0  0
   -0.7500    1.2990    0.0000 C   0  0  0  0  0  0  0  0  0  0  0  0
   -1.5000    0.0000    0.0000 C   0  0  0  0  0  0  0  0  0  0  0  0
   -0.7500   -1.2990    0.0000 C   0  0  0  0  0  0  0  0  0  0  0  0
  1  2  1  0
  2  3  1  0
  2  4  1  0
  4  5  1  0
  2  6  1  0
  6  7  1  0
  7  8  2  0
  8  9  1  0
  9 10  2  0
  9 11  1  0
 11 12  2  0
 12 13  1  0
 13 14  2  0
 14 15  1  0
 15 16  1  0
 16 17  1  0
 17 18  2  0
 17 19  1  0
 19 20  1  0
 20 21  1  0
 21 22  2  0
 22 23  1  0
 23 24  1  0
 24 25  1  0
 22 26  1  0
 26 27  2  0
 15 28  2  0
  8 29  1  0
 29 30  2  0
 30 31  1  0
 31 32  2  0
 32 33  1  0
 33 34  2  0
 34  6  1  0
 28 11  1  0
 34 29  1  0
 27 20  1  0
 25 23  1  0
M  END
>  <Compound_ID>  (282) 
CHEMBL3950537

>  <Molecule Name>  (282) 
nan

>  <Molecular Weight>  (282) 
459.51

>  <AlogP>  (282) 
2.5

>  <Smiles>  (282) 
CC(C)(CO)n1cc(C(=O)c2cncc(NC(=O)Cn3cc(C4CC4)nn3)c2)c2cnccc21

>  <Standard Type>  (282) 
IC50

>  <Standard Relation>  (282) 
'='

>  <Standard Units>  (282) 
nM

>  <Standard Value>  (282) 
12.4

>  <Assay ChEMBL ID>  (282) 
CHEMBL3887111

>  <Assay Description>  (282) 
HTRF Assay: Isolated TRK Enzyme assays use the HTRF KinEASE-TK kit (Cisbio Cat#62TK0PEJ) with recombinant His-tagged cytoplasmic domains of each TRK receptor sourced from Invitrogen (see table below). This activity-assay measures the phosphorylation of tyrosine residues within a substrate from the HTRF kit which has been validated by Cisbio for a variety of tyrosine kinases including the TRK receptors.Assay Details: Invitrogen Amino FAC FAC Assay ReactionTarget Cat# acids enzyme ATP TimeTRKA PV3144 aa 441-4 nM 40 uM 35 min (NTRK1) 796 TRKB PV3616 aa 526-1 nM 1.4 uM 40 min (NTRK2) 838 TRKC PV3617 aa 510- 10 nM 15 uM 30 min (NTRK3) 8250.5 mM stock solutions of test compounds are prepared and serially diluted in 100% DMSO. A standard curve using the compound of Example 135 disclosed in WO2005/116035 of 150 uM is also prepared on each test plate. High percentage effect (HPE) is defined by 150 uM.

>  <BAO Format ID>  (282) 
BAO_0000357

>  <BAO Label>  (282) 
single protein format

>  <Assay Organism>  (282) 
None

>  <Target ChEMBL ID>  (282) 
CHEMBL2815

>  <Target Name>  (282) 
Nerve growth factor receptor Trk-A

>  <Target Organism>  (282) 
Homo sapiens

>  <Target Type>  (282) 
SINGLE PROTEIN

>  <Document ChEMBL ID>  (282) 
CHEMBL3886170

>  <Source Description>  (282) 
BindingDB Database

>  <Document Journal>  (282) 
nan

>  <Document Year>  (282) 
2015.0

>  <Active>  (282) 
1.0

>  <bits>  (282) 
<rdkit.DataStructs.cDataStructs.ExplicitBitVect object at 0x00000159F6037C30>

>  <Group>  (282) 
G2

$$$$

     RDKit          2D

 26 29  0  0  0  0  0  0  0  0999 V2000
   -4.3786   -5.1199    0.0000 N   0  0  0  0  0  0  0  0  0  0  0  0
   -2.9520   -4.6564    0.0000 C   0  0  0  0  0  0  0  0  0  0  0  0
   -1.8373   -5.6601    0.0000 O   0  0  0  0  0  0  0  0  0  0  0  0
   -2.6401   -3.1891    0.0000 N   0  0  0  0  0  0  0  0  0  0  0  0
   -1.2135   -2.7256    0.0000 C   0  0  0  0  0  0  0  0  0  0  0  0
   -0.0000   -3.6073    0.0000 C   0  0  0  0  0  0  0  0  0  0  0  0
    1.2135   -2.7256    0.0000 N   0  0  0  0  0  0  0  0  0  0  0  0
    0.7500   -1.2990    0.0000 C   0  0  0  0  0  0  0  0  0  0  0  0
    1.5000    0.0000    0.0000 C   0  0  0  0  0  0  0  0  0  0  0  0
    0.7500    1.2990    0.0000 C   0  0  0  0  0  0  0  0  0  0  0  0
   -0.7500    1.2990    0.0000 C   0  0  0  0  0  0  0  0  0  0  0  0
   -1.5000    2.5981    0.0000 N   0  0  0  0  0  0  0  0  0  0  0  0
   -2.9918    2.7549    0.0000 C   0  0  0  0  0  0  0  0  0  0  0  0
   -3.3037    4.2221    0.0000 C   0  0  0  0  0  0  0  0  0  0  0  0
   -2.0046    4.9721    0.0000 C   0  0  0  0  0  0  0  0  0  0  0  0
   -0.8899    3.9684    0.0000 C   0  0  0  0  0  0  0  0  0  0  0  0
    0.5773    4.2803    0.0000 C   0  0  0  0  0  0  0  0  0  0  0  0
    1.5810    3.1655    0.0000 C   0  0  0  0  0  0  0  0  0  0  0  0
    3.0482    3.4774    0.0000 C   0  0  0  0  0  0  0  0  0  0  0  0
    4.0519    2.3627    0.0000 F   0  0  0  0  0  0  0  0  0  0  0  0
    3.5118    4.9040    0.0000 C   0  0  0  0  0  0  0  0  0  0  0  0
    2.5081    6.0187    0.0000 C   0  0  0  0  0  0  0  0  0  0  0  0
    1.0409    5.7068    0.0000 C   0  0  0  0  0  0  0  0  0  0  0  0
    0.0372    6.8216    0.0000 F   0  0  0  0  0  0  0  0  0  0  0  0
   -1.5000    0.0000    0.0000 N   0  0  0  0  0  0  0  0  0  0  0  0
   -0.7500   -1.2990    0.0000 N   0  0  0  0  0  0  0  0  0  0  0  0
  1  2  1  0
  2  3  2  0
  2  4  1  0
  4  5  1  0
  5  6  2  0
  6  7  1  0
  7  8  2  0
  8  9  1  0
  9 10  2  0
 10 11  1  0
 11 12  1  0
 12 13  1  0
 13 14  1  0
 14 15  1  0
 15 16  1  0
 16 17  1  6
 17 18  2  0
 18 19  1  0
 19 20  1  0
 19 21  2  0
 21 22  1  0
 22 23  2  0
 23 24  1  0
 11 25  2  0
 25 26  1  0
 26  5  1  0
 26  8  1  0
 16 12  1  0
 23 17  1  0
M  END
>  <Compound_ID>  (283) 
CHEMBL4115325

>  <Molecule Name>  (283) 
nan

>  <Molecular Weight>  (283) 
358.35

>  <AlogP>  (283) 
2.84

>  <Smiles>  (283) 
NC(=O)Nc1cnc2ccc(N3CCC[C@@H]3c3cc(F)ccc3F)nn12

>  <Standard Type>  (283) 
IC50

>  <Standard Relation>  (283) 
'='

>  <Standard Units>  (283) 
nM

>  <Standard Value>  (283) 
77.1

>  <Assay ChEMBL ID>  (283) 
CHEMBL3887826

>  <Assay Description>  (283) 
ELISA Assay: An enzyme-linked immunosorbant assay (ELISA) was used to assess TrkA kinase activity in the presence of inhibitors. Immulon 4HBX 384-well microtiter plates (Thermo part #8755) were coated with a 0.025 mg/mL solution of poly (Glu, Ala, Tyr; 6:3:1; Sigma P3899). Various concentrations of test compound, 2.5 nM TrkA (Invitrogen Corp., histidine-tagged recombinant human TrkA, cytoplasmic domain), and 500 uM ATP were incubated for 25 minutes at ambient temperature in the coated plates while shaking. The assay buffer consisted of 25 mM MOPS pH 7.5, 0.005% (v/v) Triton X-100 and 5 mM MgCl2. The reaction mixture was removed from the plate by washing with PBS containing 0.1% (v/v) Tween 20. The phosphorylated reaction product was detected using 0.2 ug/mL of a phosphotyrosine specific monoclonal antibody (clone PY20) conjugated to horseradish peroxidase in conjunction with the TMB Peroxidase Substrate System (KPL).

>  <BAO Format ID>  (283) 
BAO_0000357

>  <BAO Label>  (283) 
single protein format

>  <Assay Organism>  (283) 
None

>  <Target ChEMBL ID>  (283) 
CHEMBL2815

>  <Target Name>  (283) 
Nerve growth factor receptor Trk-A

>  <Target Organism>  (283) 
Homo sapiens

>  <Target Type>  (283) 
SINGLE PROTEIN

>  <Document ChEMBL ID>  (283) 
CHEMBL3886465

>  <Source Description>  (283) 
BindingDB Database

>  <Document Journal>  (283) 
nan

>  <Document Year>  (283) 
2016.0

>  <Active>  (283) 
1.0

>  <bits>  (283) 
<rdkit.DataStructs.cDataStructs.ExplicitBitVect object at 0x00000159F60376F0>

>  <Group>  (283) 
G2

$$$$

     RDKit          2D

 35 39  0  0  0  0  0  0  0  0999 V2000
   -0.0000   -5.1073    0.0000 C   0  0  0  0  0  0  0  0  0  0  0  0
   -0.0000   -3.6073    0.0000 C   0  0  0  0  0  0  0  0  0  0  0  0
    1.2135   -2.7256    0.0000 N   0  0  0  0  0  0  0  0  0  0  0  0
    0.7500   -1.2990    0.0000 C   0  0  0  0  0  0  0  0  0  0  0  0
    1.5000    0.0000    0.0000 C   0  0  0  0  0  0  0  0  0  0  0  0
    0.7500    1.2990    0.0000 C   0  0  0  0  0  0  0  0  0  0  0  0
   -0.7500    1.2990    0.0000 C   0  0  0  0  0  0  0  0  0  0  0  0
   -1.5000    2.5981    0.0000 Cl  0  0  0  0  0  0  0  0  0  0  0  0
   -1.5000    0.0000    0.0000 C   0  0  0  0  0  0  0  0  0  0  0  0
   -0.7500   -1.2990    0.0000 C   0  0  0  0  0  0  0  0  0  0  0  0
   -1.2135   -2.7256    0.0000 C   0  0  0  0  0  0  0  0  0  0  0  0
   -2.6401   -3.1891    0.0000 C   0  0  0  0  0  0  0  0  0  0  0  0
   -2.9520   -4.6564    0.0000 C   0  0  0  0  0  0  0  0  0  0  0  0
   -1.8373   -5.6601    0.0000 O   0  0  0  0  0  0  0  0  0  0  0  0
   -4.3786   -5.1199    0.0000 N   0  0  0  0  0  0  0  0  0  0  0  0
   -4.6904   -6.5871    0.0000 C   0  0  0  0  0  0  0  0  0  0  0  0
   -6.1170   -7.0506    0.0000 C   0  0  0  0  0  0  0  0  0  0  0  0
   -6.4289   -8.5179    0.0000 N   0  0  0  0  0  0  0  0  0  0  0  0
   -5.3142   -9.5216    0.0000 C   0  0  0  0  0  0  0  0  0  0  0  0
   -3.8876   -9.0580    0.0000 C   0  0  0  0  0  0  0  0  0  0  0  0
   -2.7729  -10.0617    0.0000 C   0  0  0  0  0  0  0  0  0  0  0  0
   -1.3463   -9.5982    0.0000 O   0  0  0  0  0  0  0  0  0  0  0  0
   -3.0847  -11.5290    0.0000 C   0  0  0  0  0  0  0  0  0  0  0  0
   -4.4550  -12.1391    0.0000 C   0  0  0  0  0  0  0  0  0  0  0  0
   -4.2983  -13.6308    0.0000 N   0  0  0  0  0  0  0  0  0  0  0  0
   -5.4130  -14.6345    0.0000 C   0  0  0  0  0  0  0  0  0  0  0  0
   -6.8396  -14.1710    0.0000 C   0  0  0  0  0  0  0  0  0  0  0  0
   -5.1011  -16.1018    0.0000 C   0  0  0  0  0  0  0  0  0  0  0  0
   -2.8310  -13.9427    0.0000 C   0  0  0  0  0  0  0  0  0  0  0  0
   -2.0810  -15.2417    0.0000 N   0  0  0  0  0  0  0  0  0  0  0  0
   -0.5810  -15.2417    0.0000 C   0  0  0  0  0  0  0  0  0  0  0  0
    0.1690  -13.9427    0.0000 N   0  0  0  0  0  0  0  0  0  0  0  0
   -0.5810  -12.6437    0.0000 C   0  0  0  0  0  0  0  0  0  0  0  0
   -2.0810  -12.6437    0.0000 C   0  0  0  0  0  0  0  0  0  0  0  0
   -3.5757   -7.5908    0.0000 C   0  0  0  0  0  0  0  0  0  0  0  0
  1  2  1  0
  2  3  1  0
  3  4  1  0
  4  5  2  0
  5  6  1  0
  6  7  2  0
  7  8  1  0
  7  9  1  0
  9 10  2  0
 10 11  1  0
 11 12  1  0
 12 13  1  0
 13 14  2  0
 13 15  1  0
 15 16  1  0
 16 17  2  0
 17 18  1  0
 18 19  2  0
 19 20  1  0
 20 21  1  0
 21 22  2  0
 21 23  1  0
 23 24  2  0
 24 25  1  0
 25 26  1  0
 26 27  1  0
 26 28  1  0
 25 29  1  0
 29 30  2  0
 30 31  1  0
 31 32  2  0
 32 33  1  0
 33 34  2  0
 20 35  2  0
 11  2  2  0
 35 16  1  0
 10  4  1  0
 34 23  1  0
 34 29  1  0
M  END
>  <Compound_ID>  (284) 
CHEMBL3661504

>  <Molecule Name>  (284) 
nan

>  <Molecular Weight>  (284) 
486.96

>  <AlogP>  (284) 
5.26

>  <Smiles>  (284) 
Cc1[nH]c2ccc(Cl)cc2c1CC(=O)Nc1cncc(C(=O)c2cn(C(C)C)c3ncncc23)c1

>  <Standard Type>  (284) 
IC50

>  <Standard Relation>  (284) 
'='

>  <Standard Units>  (284) 
nM

>  <Standard Value>  (284) 
36.5

>  <Assay ChEMBL ID>  (284) 
CHEMBL3887033

>  <Assay Description>  (284) 
Enzyme Assay: Isolated TRK Enzyme assays use the HTRF KinEASE-TK kit (Cisbio Cat# 62TK0PEJ) with recombinant His-tagged cytoplasmic domains of each TRK receptor sourced from Invitrogen (see table below). This activity-assay measures the phosphorylation of tyrosine residues within a substrate from the HTRF kit which has been validated by Cisbio for a variety of tyrosine kinases including the TRK receptors. Assay details: Target:TRKA; Invitrogen Cat# PV3144; Amino acids:aa 441-796; FAC enzyme:4nM; FAC ATP:40uM; Assay Reaction Time:35min.

>  <BAO Format ID>  (284) 
BAO_0000357

>  <BAO Label>  (284) 
single protein format

>  <Assay Organism>  (284) 
None

>  <Target ChEMBL ID>  (284) 
CHEMBL2815

>  <Target Name>  (284) 
Nerve growth factor receptor Trk-A

>  <Target Organism>  (284) 
Homo sapiens

>  <Target Type>  (284) 
SINGLE PROTEIN

>  <Document ChEMBL ID>  (284) 
CHEMBL3639348

>  <Source Description>  (284) 
BindingDB Database

>  <Document Journal>  (284) 
nan

>  <Document Year>  (284) 
2014.0

>  <Active>  (284) 
1.0

>  <bits>  (284) 
<rdkit.DataStructs.cDataStructs.ExplicitBitVect object at 0x00000159F6036030>

>  <Group>  (284) 
G2

$$$$

     RDKit          2D

 35 38  0  0  0  0  0  0  0  0999 V2000
   -2.1766   -4.6157    0.0000 C   0  0  0  0  0  0  0  0  0  0  0  0
   -2.6401   -3.1891    0.0000 C   0  0  0  0  0  0  0  0  0  0  0  0
   -3.1036   -1.7626    0.0000 C   0  0  0  0  0  0  0  0  0  0  0  0
   -4.0667   -3.6527    0.0000 C   0  0  0  0  0  0  0  0  0  0  0  0
   -5.1814   -2.6490    0.0000 O   0  0  0  0  0  0  0  0  0  0  0  0
   -1.2135   -2.7256    0.0000 N   0  0  0  0  0  0  0  0  0  0  0  0
   -0.0000   -3.6073    0.0000 C   0  0  0  0  0  0  0  0  0  0  0  0
    1.2135   -2.7256    0.0000 C   0  0  0  0  0  0  0  0  0  0  0  0
    2.6401   -3.1891    0.0000 C   0  0  0  0  0  0  0  0  0  0  0  0
    3.7548   -2.1855    0.0000 O   0  0  0  0  0  0  0  0  0  0  0  0
    2.9520   -4.6564    0.0000 C   0  0  0  0  0  0  0  0  0  0  0  0
    1.8373   -5.6601    0.0000 C   0  0  0  0  0  0  0  0  0  0  0  0
    2.1491   -7.1273    0.0000 N   0  0  0  0  0  0  0  0  0  0  0  0
    3.5757   -7.5908    0.0000 C   0  0  0  0  0  0  0  0  0  0  0  0
    4.6904   -6.5871    0.0000 C   0  0  0  0  0  0  0  0  0  0  0  0
    6.1170   -7.0506    0.0000 N   0  0  0  0  0  0  0  0  0  0  0  0
    6.4289   -8.5179    0.0000 C   0  0  0  0  0  0  0  0  0  0  0  0
    5.3142   -9.5216    0.0000 O   0  0  0  0  0  0  0  0  0  0  0  0
    7.8555   -8.9814    0.0000 C   0  0  0  0  0  0  0  0  0  0  0  0
    8.1673  -10.4486    0.0000 N   0  0  0  0  0  0  0  0  0  0  0  0
    9.5377  -11.0587    0.0000 C   0  0  0  0  0  0  0  0  0  0  0  0
    9.3809  -12.5505    0.0000 C   0  0  0  0  0  0  0  0  0  0  0  0
    7.9136  -12.8624    0.0000 C   0  0  0  0  0  0  0  0  0  0  0  0
    7.3035  -14.2327    0.0000 C   0  0  0  0  0  0  0  0  0  0  0  0
    6.6934  -15.6030    0.0000 F   0  0  0  0  0  0  0  0  0  0  0  0
    5.9332  -13.6226    0.0000 F   0  0  0  0  0  0  0  0  0  0  0  0
    8.6739  -14.8428    0.0000 F   0  0  0  0  0  0  0  0  0  0  0  0
    7.1636  -11.5633    0.0000 N   0  0  0  0  0  0  0  0  0  0  0  0
    4.3786   -5.1199    0.0000 C   0  0  0  0  0  0  0  0  0  0  0  0
    0.7500   -1.2990    0.0000 C   0  0  0  0  0  0  0  0  0  0  0  0
    1.5000    0.0000    0.0000 C   0  0  0  0  0  0  0  0  0  0  0  0
    0.7500    1.2990    0.0000 N   0  0  0  0  0  0  0  0  0  0  0  0
   -0.7500    1.2990    0.0000 C   0  0  0  0  0  0  0  0  0  0  0  0
   -1.5000    0.0000    0.0000 C   0  0  0  0  0  0  0  0  0  0  0  0
   -0.7500   -1.2990    0.0000 C   0  0  0  0  0  0  0  0  0  0  0  0
  1  2  1  0
  2  3  1  0
  2  4  1  0
  4  5  1  0
  2  6  1  0
  6  7  1  0
  7  8  2  0
  8  9  1  0
  9 10  2  0
  9 11  1  0
 11 12  2  0
 12 13  1  0
 13 14  2  0
 14 15  1  0
 15 16  1  0
 16 17  1  0
 17 18  2  0
 17 19  1  0
 19 20  1  0
 20 21  1  0
 21 22  2  0
 22 23  1  0
 23 24  1  0
 24 25  1  0
 24 26  1  0
 24 27  1  0
 23 28  2  0
 15 29  2  0
  8 30  1  0
 30 31  2  0
 31 32  1  0
 32 33  2  0
 33 34  1  0
 34 35  2  0
 35  6  1  0
 29 11  1  0
 35 30  1  0
 28 20  1  0
M  END
>  <Compound_ID>  (285) 
CHEMBL3947103

>  <Molecule Name>  (285) 
nan

>  <Molecular Weight>  (285) 
486.45

>  <AlogP>  (285) 
3.24

>  <Smiles>  (285) 
CC(C)(CO)n1cc(C(=O)c2cncc(NC(=O)Cn3ccc(C(F)(F)F)n3)c2)c2cnccc21

>  <Standard Type>  (285) 
IC50

>  <Standard Relation>  (285) 
'='

>  <Standard Units>  (285) 
nM

>  <Standard Value>  (285) 
43.1

>  <Assay ChEMBL ID>  (285) 
CHEMBL3887111

>  <Assay Description>  (285) 
HTRF Assay: Isolated TRK Enzyme assays use the HTRF KinEASE-TK kit (Cisbio Cat#62TK0PEJ) with recombinant His-tagged cytoplasmic domains of each TRK receptor sourced from Invitrogen (see table below). This activity-assay measures the phosphorylation of tyrosine residues within a substrate from the HTRF kit which has been validated by Cisbio for a variety of tyrosine kinases including the TRK receptors.Assay Details: Invitrogen Amino FAC FAC Assay ReactionTarget Cat# acids enzyme ATP TimeTRKA PV3144 aa 441-4 nM 40 uM 35 min (NTRK1) 796 TRKB PV3616 aa 526-1 nM 1.4 uM 40 min (NTRK2) 838 TRKC PV3617 aa 510- 10 nM 15 uM 30 min (NTRK3) 8250.5 mM stock solutions of test compounds are prepared and serially diluted in 100% DMSO. A standard curve using the compound of Example 135 disclosed in WO2005/116035 of 150 uM is also prepared on each test plate. High percentage effect (HPE) is defined by 150 uM.

>  <BAO Format ID>  (285) 
BAO_0000357

>  <BAO Label>  (285) 
single protein format

>  <Assay Organism>  (285) 
None

>  <Target ChEMBL ID>  (285) 
CHEMBL2815

>  <Target Name>  (285) 
Nerve growth factor receptor Trk-A

>  <Target Organism>  (285) 
Homo sapiens

>  <Target Type>  (285) 
SINGLE PROTEIN

>  <Document ChEMBL ID>  (285) 
CHEMBL3886170

>  <Source Description>  (285) 
BindingDB Database

>  <Document Journal>  (285) 
nan

>  <Document Year>  (285) 
2015.0

>  <Active>  (285) 
1.0

>  <bits>  (285) 
<rdkit.DataStructs.cDataStructs.ExplicitBitVect object at 0x00000159F6034270>

>  <Group>  (285) 
G2

$$$$

     RDKit          2D

 25 28  0  0  0  0  0  0  0  0999 V2000
    7.5000   -5.1962    0.0000 C   0  0  0  0  0  0  0  0  0  0  0  0
    6.0000   -5.1962    0.0000 C   0  0  0  0  0  0  0  0  0  0  0  0
    5.2500   -6.4952    0.0000 O   0  0  0  0  0  0  0  0  0  0  0  0
    5.2500   -3.8971    0.0000 N   0  0  0  0  0  0  0  0  0  0  0  0
    3.7500   -3.8971    0.0000 C   0  0  0  0  0  0  0  0  0  0  0  0
    3.0000   -5.1962    0.0000 C   0  0  0  0  0  0  0  0  0  0  0  0
    1.5000   -5.1962    0.0000 C   0  0  0  0  0  0  0  0  0  0  0  0
    0.7500   -3.8971    0.0000 C   0  0  0  0  0  0  0  0  0  0  0  0
    1.5000   -2.5981    0.0000 C   0  0  0  0  0  0  0  0  0  0  0  0
    0.7500   -1.2990    0.0000 C   0  0  0  0  0  0  0  0  0  0  0  0
    1.5000    0.0000    0.0000 C   0  0  0  0  0  0  0  0  0  0  0  0
    0.7500    1.2990    0.0000 N   0  0  0  0  0  0  0  0  0  0  0  0
   -0.7500    1.2990    0.0000 C   0  0  0  0  0  0  0  0  0  0  0  0
   -1.7537    2.4138    0.0000 N   0  0  0  0  0  0  0  0  0  0  0  0
   -3.1240    1.8037    0.0000 C   0  0  0  0  0  0  0  0  0  0  0  0
   -2.9672    0.3119    0.0000 C   0  0  0  0  0  0  0  0  0  0  0  0
   -4.0819   -0.6918    0.0000 C   0  0  0  0  0  0  0  0  0  0  0  0
   -5.5085   -0.2283    0.0000 C   0  0  0  0  0  0  0  0  0  0  0  0
   -6.6232   -1.2320    0.0000 C   0  0  0  0  0  0  0  0  0  0  0  0
   -6.3114   -2.6992    0.0000 N   0  0  0  0  0  0  0  0  0  0  0  0
   -4.8848   -3.1627    0.0000 C   0  0  0  0  0  0  0  0  0  0  0  0
   -3.7701   -2.1590    0.0000 C   0  0  0  0  0  0  0  0  0  0  0  0
   -1.5000    0.0000    0.0000 C   0  0  0  0  0  0  0  0  0  0  0  0
   -0.7500   -1.2990    0.0000 C   0  0  0  0  0  0  0  0  0  0  0  0
    3.0000   -2.5981    0.0000 C   0  0  0  0  0  0  0  0  0  0  0  0
  1  2  1  0
  2  3  2  0
  2  4  1  0
  4  5  1  0
  5  6  2  0
  6  7  1  0
  7  8  2  0
  8  9  1  0
  9 10  1  0
 10 11  2  0
 11 12  1  0
 12 13  2  0
 13 14  1  0
 14 15  1  0
 15 16  2  0
 16 17  1  0
 17 18  2  0
 18 19  1  0
 19 20  2  0
 20 21  1  0
 21 22  2  0
 16 23  1  0
 23 24  2  0
  9 25  2  0
 25  5  1  0
 24 10  1  0
 23 13  1  0
 22 17  1  0
M  END
>  <Compound_ID>  (286) 
CHEMBL2152273

>  <Molecule Name>  (286) 
nan

>  <Molecular Weight>  (286) 
328.38

>  <AlogP>  (286) 
4.25

>  <Smiles>  (286) 
CC(=O)Nc1cccc(-c2cnc3[nH]cc(-c4ccncc4)c3c2)c1

>  <Standard Type>  (286) 
IC50

>  <Standard Relation>  (286) 
'='

>  <Standard Units>  (286) 
nM

>  <Standard Value>  (286) 
34.3

>  <Assay ChEMBL ID>  (286) 
CHEMBL2157053

>  <Assay Description>  (286) 
Inhibition of TRKA assessed as [gamma33P]ATP incorporation into substrate

>  <BAO Format ID>  (286) 
BAO_0000357

>  <BAO Label>  (286) 
single protein format

>  <Assay Organism>  (286) 
None

>  <Target ChEMBL ID>  (286) 
CHEMBL2815

>  <Target Name>  (286) 
Nerve growth factor receptor Trk-A

>  <Target Organism>  (286) 
Homo sapiens

>  <Target Type>  (286) 
SINGLE PROTEIN

>  <Document ChEMBL ID>  (286) 
CHEMBL2150859

>  <Source Description>  (286) 
Scientific Literature

>  <Document Journal>  (286) 
J Med Chem

>  <Document Year>  (286) 
2012.0

>  <Active>  (286) 
1.0

>  <bits>  (286) 
<rdkit.DataStructs.cDataStructs.ExplicitBitVect object at 0x00000159F6036D50>

>  <Group>  (286) 
G2

$$$$

     RDKit          2D

 29 32  0  0  0  0  0  0  0  0999 V2000
   -3.9150   -6.5465    0.0000 C   0  0  0  0  0  0  0  0  0  0  0  0
   -4.3786   -5.1199    0.0000 C   0  0  0  0  0  0  0  0  0  0  0  0
   -4.8421   -3.6933    0.0000 C   0  0  0  0  0  0  0  0  0  0  0  0
   -5.8051   -5.5834    0.0000 C   0  0  0  0  0  0  0  0  0  0  0  0
   -7.2317   -6.0469    0.0000 N   0  0  0  0  0  0  0  0  0  0  0  0
   -2.9520   -4.6564    0.0000 N   0  0  0  0  0  0  0  0  0  0  0  0
   -2.6401   -3.1891    0.0000 C   0  0  0  0  0  0  0  0  0  0  0  0
   -3.7548   -2.1855    0.0000 O   0  0  0  0  0  0  0  0  0  0  0  0
   -1.2135   -2.7256    0.0000 C   0  0  0  0  0  0  0  0  0  0  0  0
   -0.0000   -3.6073    0.0000 C   0  0  0  0  0  0  0  0  0  0  0  0
    1.2135   -2.7256    0.0000 N   0  0  0  0  0  0  0  0  0  0  0  0
    0.7500   -1.2990    0.0000 N   0  0  0  0  0  0  0  0  0  0  0  0
    1.5000    0.0000    0.0000 C   0  0  0  0  0  0  0  0  0  0  0  0
    0.7500    1.2990    0.0000 C   0  0  0  0  0  0  0  0  0  0  0  0
   -0.7500    1.2990    0.0000 C   0  0  0  0  0  0  0  0  0  0  0  0
   -1.5000    2.5981    0.0000 N   0  0  0  0  0  0  0  0  0  0  0  0
   -2.9918    2.7549    0.0000 C   0  0  0  0  0  0  0  0  0  0  0  0
   -3.3037    4.2221    0.0000 C   0  0  0  0  0  0  0  0  0  0  0  0
   -2.0046    4.9721    0.0000 C   0  0  0  0  0  0  0  0  0  0  0  0
   -0.8899    3.9684    0.0000 C   0  0  0  0  0  0  0  0  0  0  0  0
    0.5773    4.2803    0.0000 C   0  0  0  0  0  0  0  0  0  0  0  0
    1.5810    3.1655    0.0000 C   0  0  0  0  0  0  0  0  0  0  0  0
    3.0482    3.4774    0.0000 N   0  0  0  0  0  0  0  0  0  0  0  0
    3.5118    4.9040    0.0000 C   0  0  0  0  0  0  0  0  0  0  0  0
    2.5081    6.0187    0.0000 C   0  0  0  0  0  0  0  0  0  0  0  0
    2.9716    7.4453    0.0000 F   0  0  0  0  0  0  0  0  0  0  0  0
    1.0409    5.7068    0.0000 C   0  0  0  0  0  0  0  0  0  0  0  0
   -1.5000    0.0000    0.0000 N   0  0  0  0  0  0  0  0  0  0  0  0
   -0.7500   -1.2990    0.0000 C   0  0  0  0  0  0  0  0  0  0  0  0
  1  2  1  0
  2  3  1  0
  2  4  1  0
  4  5  3  0
  2  6  1  0
  6  7  1  0
  7  8  2  0
  7  9  1  0
  9 10  1  0
 10 11  2  0
 11 12  1  0
 12 13  1  0
 13 14  2  0
 14 15  1  0
 15 16  1  0
 16 17  1  0
 17 18  1  0
 18 19  1  0
 19 20  1  0
 20 21  1  0
 21 22  2  0
 22 23  1  0
 23 24  2  0
 24 25  1  0
 25 26  1  0
 25 27  2  0
 15 28  2  0
 28 29  1  0
 29  9  2  0
 29 12  1  0
 20 16  1  0
 27 21  1  0
M  END
>  <Compound_ID>  (287) 
CHEMBL3675944

>  <Molecule Name>  (287) 
nan

>  <Molecular Weight>  (287) 
393.43

>  <AlogP>  (287) 
2.64

>  <Smiles>  (287) 
CC(C)(C#N)NC(=O)c1cnn2ccc(N3CCCC3c3cncc(F)c3)nc12

>  <Standard Type>  (287) 
IC50

>  <Standard Relation>  (287) 
'='

>  <Standard Units>  (287) 
nM

>  <Standard Value>  (287) 
60.3

>  <Assay ChEMBL ID>  (287) 
CHEMBL3887070

>  <Assay Description>  (287) 
ELISA Assay: An enzyme-linked immunosorbant assay (ELISA) was used to assess TrkA kinase activity in the presence of inhibitors. Immulon 4HBX 384-well microtiter plates (Thermo part #8755) were coated with a 0.025 mg/mL solution of poly (Glu, Ala, Tyr; 6:3:1; Sigma P3899). Various concentrations of test compound, 2.5 nM TrkA (Invitrogen Corp., histidine-tagged recombinant human TrkA, cytoplasmic domain), and 500 uM ATP were incubated for 25 minutes at ambient temperature in the coated plates while shaking The assay buffer consisted of 25 mM MOPS pH 7.5, 0.005% (v/v) Triton X-100 and 5 mM MgCl2. The reaction mixture was removed from the plate by washing with PBS containing 0.1% (v/v) Tween 20. The phosphorylated reaction product was detected using 0.2 ug/mL of a phosphotyrosine specific monoclonal antibody (clone PY20) conjugated to horseradish peroxidase in conjunction with the TMB Peroxidase Substrate System (KPL).

>  <BAO Format ID>  (287) 
BAO_0000357

>  <BAO Label>  (287) 
single protein format

>  <Assay Organism>  (287) 
None

>  <Target ChEMBL ID>  (287) 
CHEMBL2815

>  <Target Name>  (287) 
Nerve growth factor receptor Trk-A

>  <Target Organism>  (287) 
Homo sapiens

>  <Target Type>  (287) 
SINGLE PROTEIN

>  <Document ChEMBL ID>  (287) 
CHEMBL3638907

>  <Source Description>  (287) 
BindingDB Database

>  <Document Journal>  (287) 
nan

>  <Document Year>  (287) 
2014.0

>  <Active>  (287) 
1.0

>  <bits>  (287) 
<rdkit.DataStructs.cDataStructs.ExplicitBitVect object at 0x00000159F6036C00>

>  <Group>  (287) 
G2

$$$$

     RDKit          2D

 29 32  0  0  0  0  0  0  0  0999 V2000
   -3.9150   -6.5465    0.0000 C   0  0  0  0  0  0  0  0  0  0  0  0
   -4.3786   -5.1199    0.0000 C   0  0  0  0  0  0  0  0  0  0  0  0
   -4.8421   -3.6933    0.0000 C   0  0  0  0  0  0  0  0  0  0  0  0
   -5.8051   -5.5834    0.0000 C   0  0  0  0  0  0  0  0  0  0  0  0
   -2.9520   -4.6564    0.0000 N   0  0  0  0  0  0  0  0  0  0  0  0
   -2.6401   -3.1891    0.0000 C   0  0  0  0  0  0  0  0  0  0  0  0
   -3.7548   -2.1855    0.0000 O   0  0  0  0  0  0  0  0  0  0  0  0
   -1.2135   -2.7256    0.0000 C   0  0  0  0  0  0  0  0  0  0  0  0
   -0.0000   -3.6073    0.0000 C   0  0  0  0  0  0  0  0  0  0  0  0
    1.2135   -2.7256    0.0000 N   0  0  0  0  0  0  0  0  0  0  0  0
    0.7500   -1.2990    0.0000 N   0  0  0  0  0  0  0  0  0  0  0  0
    1.5000    0.0000    0.0000 C   0  0  0  0  0  0  0  0  0  0  0  0
    0.7500    1.2990    0.0000 C   0  0  0  0  0  0  0  0  0  0  0  0
   -0.7500    1.2990    0.0000 C   0  0  0  0  0  0  0  0  0  0  0  0
   -1.5000    2.5981    0.0000 N   0  0  0  0  0  0  0  0  0  0  0  0
   -2.9918    2.7549    0.0000 C   0  0  0  0  0  0  0  0  0  0  0  0
   -3.3037    4.2221    0.0000 C   0  0  0  0  0  0  0  0  0  0  0  0
   -2.0046    4.9721    0.0000 C   0  0  0  0  0  0  0  0  0  0  0  0
   -0.8899    3.9684    0.0000 C   0  0  0  0  0  0  0  0  0  0  0  0
    0.5773    4.2803    0.0000 C   0  0  0  0  0  0  0  0  0  0  0  0
    1.5810    3.1655    0.0000 C   0  0  0  0  0  0  0  0  0  0  0  0
    3.0482    3.4774    0.0000 C   0  0  0  0  0  0  0  0  0  0  0  0
    4.0519    2.3627    0.0000 F   0  0  0  0  0  0  0  0  0  0  0  0
    3.5118    4.9040    0.0000 C   0  0  0  0  0  0  0  0  0  0  0  0
    2.5081    6.0187    0.0000 C   0  0  0  0  0  0  0  0  0  0  0  0
    1.0409    5.7068    0.0000 C   0  0  0  0  0  0  0  0  0  0  0  0
    0.0372    6.8216    0.0000 F   0  0  0  0  0  0  0  0  0  0  0  0
   -1.5000    0.0000    0.0000 N   0  0  0  0  0  0  0  0  0  0  0  0
   -0.7500   -1.2990    0.0000 C   0  0  0  0  0  0  0  0  0  0  0  0
  1  2  1  0
  2  3  1  0
  2  4  1  0
  2  5  1  0
  5  6  1  0
  6  7  2  0
  6  8  1  0
  8  9  1  0
  9 10  2  0
 10 11  1  0
 11 12  1  0
 12 13  2  0
 13 14  1  0
 14 15  1  0
 15 16  1  0
 16 17  1  0
 17 18  1  0
 18 19  1  0
 19 20  1  6
 20 21  2  0
 21 22  1  0
 22 23  1  0
 22 24  2  0
 24 25  1  0
 25 26  2  0
 26 27  1  0
 14 28  2  0
 28 29  1  0
 29  8  2  0
 29 11  1  0
 19 15  1  0
 26 20  1  0
M  END
>  <Compound_ID>  (288) 
CHEMBL3671129

>  <Molecule Name>  (288) 
nan

>  <Molecular Weight>  (288) 
399.45

>  <AlogP>  (288) 
3.88

>  <Smiles>  (288) 
CC(C)(C)NC(=O)c1cnn2ccc(N3CCC[C@@H]3c3cc(F)ccc3F)nc12

>  <Standard Type>  (288) 
IC50

>  <Standard Relation>  (288) 
'='

>  <Standard Units>  (288) 
nM

>  <Standard Value>  (288) 
0.7

>  <Assay ChEMBL ID>  (288) 
CHEMBL3887070

>  <Assay Description>  (288) 
ELISA Assay: An enzyme-linked immunosorbant assay (ELISA) was used to assess TrkA kinase activity in the presence of inhibitors. Immulon 4HBX 384-well microtiter plates (Thermo part #8755) were coated with a 0.025 mg/mL solution of poly (Glu, Ala, Tyr; 6:3:1; Sigma P3899). Various concentrations of test compound, 2.5 nM TrkA (Invitrogen Corp., histidine-tagged recombinant human TrkA, cytoplasmic domain), and 500 uM ATP were incubated for 25 minutes at ambient temperature in the coated plates while shaking The assay buffer consisted of 25 mM MOPS pH 7.5, 0.005% (v/v) Triton X-100 and 5 mM MgCl2. The reaction mixture was removed from the plate by washing with PBS containing 0.1% (v/v) Tween 20. The phosphorylated reaction product was detected using 0.2 ug/mL of a phosphotyrosine specific monoclonal antibody (clone PY20) conjugated to horseradish peroxidase in conjunction with the TMB Peroxidase Substrate System (KPL).

>  <BAO Format ID>  (288) 
BAO_0000357

>  <BAO Label>  (288) 
single protein format

>  <Assay Organism>  (288) 
None

>  <Target ChEMBL ID>  (288) 
CHEMBL2815

>  <Target Name>  (288) 
Nerve growth factor receptor Trk-A

>  <Target Organism>  (288) 
Homo sapiens

>  <Target Type>  (288) 
SINGLE PROTEIN

>  <Document ChEMBL ID>  (288) 
CHEMBL3638907

>  <Source Description>  (288) 
BindingDB Database

>  <Document Journal>  (288) 
nan

>  <Document Year>  (288) 
2014.0

>  <Active>  (288) 
1.0

>  <bits>  (288) 
<rdkit.DataStructs.cDataStructs.ExplicitBitVect object at 0x00000159F6037450>

>  <Group>  (288) 
G2

$$$$

     RDKit          2D

 34 40  0  0  0  0  0  0  0  0999 V2000
    5.8172   -1.8901    0.0000 C   0  0  0  0  0  0  0  0  0  0  0  0
    5.0672   -3.1891    0.0000 C   0  0  0  0  0  0  0  0  0  0  0  0
    6.4375   -3.7993    0.0000 C   0  0  0  0  0  0  0  0  0  0  0  0
    3.8536   -2.3075    0.0000 O   0  0  0  0  0  0  0  0  0  0  0  0
    2.6401   -3.1891    0.0000 C   0  0  0  0  0  0  0  0  0  0  0  0
    1.2135   -2.7256    0.0000 N   0  0  0  0  0  0  0  0  0  0  0  0
    0.7500   -1.2990    0.0000 C   0  0  0  0  0  0  0  0  0  0  0  0
    1.5000    0.0000    0.0000 C   0  0  0  0  0  0  0  0  0  0  0  0
    0.7500    1.2990    0.0000 C   0  0  0  0  0  0  0  0  0  0  0  0
   -0.7500    1.2990    0.0000 C   0  0  0  0  0  0  0  0  0  0  0  0
   -1.5000    0.0000    0.0000 C   0  0  0  0  0  0  0  0  0  0  0  0
   -0.7500   -1.2990    0.0000 C   0  0  0  0  0  0  0  0  0  0  0  0
   -1.2135   -2.7256    0.0000 C   0  0  0  0  0  0  0  0  0  0  0  0
   -2.5838   -3.3357    0.0000 C   0  0  0  0  0  0  0  0  0  0  0  0
   -2.7406   -4.8275    0.0000 C   0  0  0  0  0  0  0  0  0  0  0  0
   -1.5271   -5.7092    0.0000 C   0  0  0  0  0  0  0  0  0  0  0  0
   -1.3703   -7.2010    0.0000 C   0  0  0  0  0  0  0  0  0  0  0  0
   -2.3740   -8.3157    0.0000 C   0  0  0  0  0  0  0  0  0  0  0  0
   -1.9105   -9.7423    0.0000 C   0  0  0  0  0  0  0  0  0  0  0  0
   -0.4433  -10.0541    0.0000 C   0  0  0  0  0  0  0  0  0  0  0  0
    0.5604   -8.9394    0.0000 C   0  0  0  0  0  0  0  0  0  0  0  0
    0.0969   -7.5128    0.0000 C   0  0  0  0  0  0  0  0  0  0  0  0
    0.8469   -6.2138    0.0000 N   0  0  0  0  0  0  0  0  0  0  0  0
   -0.1568   -5.0991    0.0000 C   0  0  0  0  0  0  0  0  0  0  0  0
   -0.0000   -3.6073    0.0000 C   0  0  0  0  0  0  0  0  0  0  0  0
   -4.2079   -5.1394    0.0000 C   0  0  0  0  0  0  0  0  0  0  0  0
   -4.9579   -3.8403    0.0000 N   0  0  0  0  0  0  0  0  0  0  0  0
   -3.9542   -2.7256    0.0000 C   0  0  0  0  0  0  0  0  0  0  0  0
   -4.2660   -1.2584    0.0000 O   0  0  0  0  0  0  0  0  0  0  0  0
    3.1036   -4.6157    0.0000 C   0  0  0  0  0  0  0  0  0  0  0  0
    4.6036   -4.6157    0.0000 C   0  0  0  0  0  0  0  0  0  0  0  0
    4.4468   -6.1075    0.0000 O   0  0  0  0  0  0  0  0  0  0  0  0
    6.0709   -4.9276    0.0000 C   0  0  0  0  0  0  0  0  0  0  0  0
    6.5344   -6.3542    0.0000 O   0  0  0  0  0  0  0  0  0  0  0  0
  1  2  1  0
  2  3  1  0
  2  4  1  0
  4  5  1  0
  5  6  1  6
  6  7  1  0
  7  8  2  0
  8  9  1  0
  9 10  2  0
 10 11  1  0
 11 12  2  0
 12 13  1  0
 13 14  2  0
 14 15  1  0
 15 16  2  0
 16 17  1  0
 17 18  2  0
 18 19  1  0
 19 20  2  0
 20 21  1  0
 21 22  2  0
 22 23  1  0
 23 24  1  0
 24 25  2  0
 15 26  1  0
 26 27  1  0
 27 28  1  0
 28 29  2  0
  5 30  1  0
 30 31  1  0
 31 32  1  1
 31 33  1  0
 33 34  1  0
 31  2  1  0
 25  6  1  0
 12  7  1  0
 25 13  1  0
 28 14  1  0
 24 16  1  0
 22 17  1  0
M  END
>  <Compound_ID>  (289) 
CHEMBL370493

>  <Molecule Name>  (289) 
nan

>  <Molecular Weight>  (289) 
455.51

>  <AlogP>  (289) 
4.09

>  <Smiles>  (289) 
CC1(C)O[C@@H](n2c3ccccc3c3c4c(c5c6ccccc6[nH]c5c32)CNC4=O)C[C@@]1(O)CO

>  <Standard Type>  (289) 
IC50

>  <Standard Relation>  (289) 
'='

>  <Standard Units>  (289) 
nM

>  <Standard Value>  (289) 
4.0

>  <Assay ChEMBL ID>  (289) 
CHEMBL832085

>  <Assay Description>  (289) 
Inhibition of baculovirus expressed human trkA

>  <BAO Format ID>  (289) 
BAO_0000357

>  <BAO Label>  (289) 
single protein format

>  <Assay Organism>  (289) 
Homo sapiens

>  <Target ChEMBL ID>  (289) 
CHEMBL2815

>  <Target Name>  (289) 
Nerve growth factor receptor Trk-A

>  <Target Organism>  (289) 
Homo sapiens

>  <Target Type>  (289) 
SINGLE PROTEIN

>  <Document ChEMBL ID>  (289) 
CHEMBL1139527

>  <Source Description>  (289) 
Scientific Literature

>  <Document Journal>  (289) 
J Med Chem

>  <Document Year>  (289) 
2005.0

>  <Active>  (289) 
1.0

>  <bits>  (289) 
<rdkit.DataStructs.cDataStructs.ExplicitBitVect object at 0x00000159F543FC30>

>  <Group>  (289) 
G2

$$$$

     RDKit          2D

 32 39  0  0  0  0  0  0  0  0999 V2000
    5.5347   -4.1509    0.0000 C   0  0  0  0  0  0  0  0  0  0  0  0
    4.0514   -3.9273    0.0000 C   0  0  0  0  0  0  0  0  0  0  0  0
    4.4288   -2.4756    0.0000 O   0  0  0  0  0  0  0  0  0  0  0  0
    3.9841   -5.4258    0.0000 C   0  0  0  0  0  0  0  0  0  0  0  0
    2.5382   -5.8249    0.0000 C   0  0  0  0  0  0  0  0  0  0  0  0
    3.2490   -4.5040    0.0000 O   0  0  0  0  0  0  0  0  0  0  0  0
    2.6595   -3.1247    0.0000 C   0  0  0  0  0  0  0  0  0  0  0  0
    3.6464   -1.9951    0.0000 C   0  0  0  0  0  0  0  0  0  0  0  0
    1.2135   -2.7256    0.0000 N   0  0  0  0  0  0  0  0  0  0  0  0
    0.7500   -1.2990    0.0000 C   0  0  0  0  0  0  0  0  0  0  0  0
    1.5000    0.0000    0.0000 C   0  0  0  0  0  0  0  0  0  0  0  0
    0.7500    1.2990    0.0000 C   0  0  0  0  0  0  0  0  0  0  0  0
   -0.7500    1.2990    0.0000 C   0  0  0  0  0  0  0  0  0  0  0  0
   -1.5000    0.0000    0.0000 C   0  0  0  0  0  0  0  0  0  0  0  0
   -0.7500   -1.2990    0.0000 C   0  0  0  0  0  0  0  0  0  0  0  0
   -1.2135   -2.7256    0.0000 C   0  0  0  0  0  0  0  0  0  0  0  0
   -2.5518   -3.5691    0.0000 C   0  0  0  0  0  0  0  0  0  0  0  0
   -2.6191   -5.0676    0.0000 C   0  0  0  0  0  0  0  0  0  0  0  0
   -1.3550   -5.8751    0.0000 C   0  0  0  0  0  0  0  0  0  0  0  0
   -1.0212   -7.3375    0.0000 C   0  0  0  0  0  0  0  0  0  0  0  0
   -1.8846   -8.5641    0.0000 C   0  0  0  0  0  0  0  0  0  0  0  0
   -1.2541   -9.9251    0.0000 C   0  0  0  0  0  0  0  0  0  0  0  0
    0.2399  -10.0596    0.0000 C   0  0  0  0  0  0  0  0  0  0  0  0
    1.1033   -8.8330    0.0000 C   0  0  0  0  0  0  0  0  0  0  0  0
    0.4728   -7.4720    0.0000 C   0  0  0  0  0  0  0  0  0  0  0  0
    1.0623   -6.0927    0.0000 N   0  0  0  0  0  0  0  0  0  0  0  0
   -0.0673   -5.1058    0.0000 C   0  0  0  0  0  0  0  0  0  0  0  0
   -0.0000   -3.6073    0.0000 C   0  0  0  0  0  0  0  0  0  0  0  0
   -4.0650   -5.4667    0.0000 C   0  0  0  0  0  0  0  0  0  0  0  0
   -4.5921   -6.8710    0.0000 O   0  0  0  0  0  0  0  0  0  0  0  0
   -4.8913   -4.2148    0.0000 N   0  0  0  0  0  0  0  0  0  0  0  0
   -3.9561   -3.0421    0.0000 C   0  0  0  0  0  0  0  0  0  0  0  0
  2  1  1  1
  2  3  1  0
  2  4  1  0
  5  4  1  6
  5  6  1  0
  6  7  1  0
  7  8  1  1
  7  9  1  0
  9 10  1  0
 10 11  2  0
 11 12  1  0
 12 13  2  0
 13 14  1  0
 14 15  2  0
 15 16  1  0
 16 17  2  0
 17 18  1  0
 18 19  2  0
 19 20  1  0
 20 21  2  0
 21 22  1  0
 22 23  2  0
 23 24  1  0
 24 25  2  0
 25 26  1  0
 26 27  1  0
 27 28  2  0
 18 29  1  0
 29 30  2  0
 29 31  1  0
 31 32  1  0
  7  2  1  0
 28  9  1  0
 26  5  1  0
 15 10  1  0
 28 16  1  0
 32 17  1  0
 27 19  1  0
 25 20  1  0
M  END
>  <Compound_ID>  (290) 
CHEMBL2113062

>  <Molecule Name>  (290) 
nan

>  <Molecular Weight>  (290) 
423.47

>  <AlogP>  (290) 
4.5

>  <Smiles>  (290) 
C[C@@]1(O)C[C@H]2O[C@]1(C)n1c3ccccc3c3c4c(c5c6ccccc6n2c5c31)C(=O)NC4

>  <Standard Type>  (290) 
IC50

>  <Standard Relation>  (290) 
'='

>  <Standard Units>  (290) 
nM

>  <Standard Value>  (290) 
20.0

>  <Assay ChEMBL ID>  (290) 
CHEMBL832085

>  <Assay Description>  (290) 
Inhibition of baculovirus expressed human trkA

>  <BAO Format ID>  (290) 
BAO_0000357

>  <BAO Label>  (290) 
single protein format

>  <Assay Organism>  (290) 
Homo sapiens

>  <Target ChEMBL ID>  (290) 
CHEMBL2815

>  <Target Name>  (290) 
Nerve growth factor receptor Trk-A

>  <Target Organism>  (290) 
Homo sapiens

>  <Target Type>  (290) 
SINGLE PROTEIN

>  <Document ChEMBL ID>  (290) 
CHEMBL1139527

>  <Source Description>  (290) 
Scientific Literature

>  <Document Journal>  (290) 
J Med Chem

>  <Document Year>  (290) 
2005.0

>  <Active>  (290) 
1.0

>  <bits>  (290) 
<rdkit.DataStructs.cDataStructs.ExplicitBitVect object at 0x00000159F543D620>

>  <Group>  (290) 
G2

$$$$

     RDKit          2D

 31 34  0  0  0  0  0  0  0  0999 V2000
   15.9726    6.3754    0.0000 C   0  0  0  0  0  0  0  0  0  0  0  0
   15.3831    7.7547    0.0000 C   0  0  0  0  0  0  0  0  0  0  0  0
   14.7935    9.1340    0.0000 C   0  0  0  0  0  0  0  0  0  0  0  0
   16.7623    8.3442    0.0000 C   0  0  0  0  0  0  0  0  0  0  0  0
   14.0038    7.1651    0.0000 C   0  0  0  0  0  0  0  0  0  0  0  0
   12.7161    7.9345    0.0000 C   0  0  0  0  0  0  0  0  0  0  0  0
   11.5865    6.9476    0.0000 C   0  0  0  0  0  0  0  0  0  0  0  0
   10.1241    7.2814    0.0000 N   0  0  0  0  0  0  0  0  0  0  0  0
    9.1038    6.1818    0.0000 C   0  0  0  0  0  0  0  0  0  0  0  0
    9.5460    4.7484    0.0000 O   0  0  0  0  0  0  0  0  0  0  0  0
    7.6414    6.5156    0.0000 N   0  0  0  0  0  0  0  0  0  0  0  0
    6.6212    5.4160    0.0000 C   0  0  0  0  0  0  0  0  0  0  0  0
    5.1588    5.7498    0.0000 C   0  0  0  0  0  0  0  0  0  0  0  0
    4.1385    4.6502    0.0000 C   0  0  0  0  0  0  0  0  0  0  0  0
    4.5807    3.2168    0.0000 C   0  0  0  0  0  0  0  0  0  0  0  0
    3.5604    2.1172    0.0000 N   0  0  0  0  0  0  0  0  0  0  0  0
    2.0980    2.4510    0.0000 C   0  0  0  0  0  0  0  0  0  0  0  0
    1.6559    3.8844    0.0000 N   0  0  0  0  0  0  0  0  0  0  0  0
    0.1935    4.2182    0.0000 C   0  0  0  0  0  0  0  0  0  0  0  0
   -0.8268    3.1186    0.0000 N   0  0  0  0  0  0  0  0  0  0  0  0
   -0.3846    1.6852    0.0000 C   0  0  0  0  0  0  0  0  0  0  0  0
    1.0777    1.3515    0.0000 C   0  0  0  0  0  0  0  0  0  0  0  0
    1.7286    0.0000    0.0000 O   0  0  0  0  0  0  0  0  0  0  0  0
    1.0777   -1.3515    0.0000 C   0  0  0  0  0  0  0  0  0  0  0  0
   -0.3846   -1.6852    0.0000 C   0  0  0  0  0  0  0  0  0  0  0  0
   -1.5574   -0.7500    0.0000 C   0  0  0  0  0  0  0  0  0  0  0  0
   -1.5574    0.7500    0.0000 N   0  0  0  0  0  0  0  0  0  0  0  0
    6.0430    2.8830    0.0000 C   0  0  0  0  0  0  0  0  0  0  0  0
    7.0633    3.9826    0.0000 C   0  0  0  0  0  0  0  0  0  0  0  0
   12.1760    5.5683    0.0000 N   0  0  0  0  0  0  0  0  0  0  0  0
   13.6700    5.7027    0.0000 O   0  0  0  0  0  0  0  0  0  0  0  0
  1  2  1  0
  2  3  1  0
  2  4  1  0
  2  5  1  0
  5  6  2  0
  6  7  1  0
  7  8  1  0
  8  9  1  0
  9 10  2  0
  9 11  1  0
 11 12  1  0
 12 13  2  0
 13 14  1  0
 14 15  2  0
 15 16  1  0
 16 17  1  0
 17 18  2  0
 18 19  1  0
 19 20  2  0
 20 21  1  0
 21 22  2  0
 22 23  1  0
 23 24  1  0
 24 25  1  0
 25 26  1  0
 26 27  1  0
 15 28  1  0
 28 29  2  0
  7 30  2  0
 30 31  1  0
 31  5  1  0
 29 12  1  0
 22 17  1  0
 27 21  1  0
M  END
>  <Compound_ID>  (291) 
CHEMBL4793380

>  <Molecule Name>  (291) 
nan

>  <Molecular Weight>  (291) 
423.48

>  <AlogP>  (291) 
4.34

>  <Smiles>  (291) 
CC(C)(C)c1cc(NC(=O)Nc2ccc(Nc3ncnc4c3OCCCN4)cc2)no1

>  <Standard Type>  (291) 
IC50

>  <Standard Relation>  (291) 
'='

>  <Standard Units>  (291) 
nM

>  <Standard Value>  (291) 
71.0

>  <Assay ChEMBL ID>  (291) 
CHEMBL4767017

>  <Assay Description>  (291) 
Inhibition of recombinant human TRKA (440 to end residues) using KKKSPGEYVNIEFG as substrate incubated for 40 mins in presence of [gamma33P]ATP by scintillation counting based radiometry assay

>  <BAO Format ID>  (291) 
BAO_0000357

>  <BAO Label>  (291) 
single protein format

>  <Assay Organism>  (291) 
Homo sapiens

>  <Target ChEMBL ID>  (291) 
CHEMBL2815

>  <Target Name>  (291) 
Nerve growth factor receptor Trk-A

>  <Target Organism>  (291) 
Homo sapiens

>  <Target Type>  (291) 
SINGLE PROTEIN

>  <Document ChEMBL ID>  (291) 
CHEMBL4765237

>  <Source Description>  (291) 
Scientific Literature

>  <Document Journal>  (291) 
Eur J Med Chem

>  <Document Year>  (291) 
2018.0

>  <Active>  (291) 
1.0

>  <bits>  (291) 
<rdkit.DataStructs.cDataStructs.ExplicitBitVect object at 0x00000159F543F840>

>  <Group>  (291) 
G2

$$$$

     RDKit          2D

 34 37  0  0  0  0  0  0  0  0999 V2000
   -8.3172   -3.2650    0.0000 C   0  0  0  0  0  0  0  0  0  0  0  0
   -9.6162   -4.0150    0.0000 C   0  0  0  0  0  0  0  0  0  0  0  0
  -10.9866   -3.4049    0.0000 C   0  0  0  0  0  0  0  0  0  0  0  0
  -11.9903   -4.5196    0.0000 C   0  0  0  0  0  0  0  0  0  0  0  0
  -13.4820   -4.3628    0.0000 C   0  0  0  0  0  0  0  0  0  0  0  0
  -14.9738   -4.2060    0.0000 F   0  0  0  0  0  0  0  0  0  0  0  0
  -13.3252   -2.8710    0.0000 F   0  0  0  0  0  0  0  0  0  0  0  0
  -13.6388   -5.8546    0.0000 F   0  0  0  0  0  0  0  0  0  0  0  0
  -11.2403   -5.8186    0.0000 N   0  0  0  0  0  0  0  0  0  0  0  0
   -9.7730   -5.5068    0.0000 N   0  0  0  0  0  0  0  0  0  0  0  0
   -8.6583   -6.5105    0.0000 C   0  0  0  0  0  0  0  0  0  0  0  0
   -7.2317   -6.0469    0.0000 C   0  0  0  0  0  0  0  0  0  0  0  0
   -6.9199   -4.5797    0.0000 O   0  0  0  0  0  0  0  0  0  0  0  0
   -6.1170   -7.0506    0.0000 N   0  0  0  0  0  0  0  0  0  0  0  0
   -4.6904   -6.5871    0.0000 C   0  0  0  0  0  0  0  0  0  0  0  0
   -3.5757   -7.5908    0.0000 C   0  0  0  0  0  0  0  0  0  0  0  0
   -2.1491   -7.1273    0.0000 N   0  0  0  0  0  0  0  0  0  0  0  0
   -1.8373   -5.6601    0.0000 C   0  0  0  0  0  0  0  0  0  0  0  0
   -2.9520   -4.6564    0.0000 C   0  0  0  0  0  0  0  0  0  0  0  0
   -2.6401   -3.1891    0.0000 C   0  0  0  0  0  0  0  0  0  0  0  0
   -3.7548   -2.1855    0.0000 O   0  0  0  0  0  0  0  0  0  0  0  0
   -1.2135   -2.7256    0.0000 C   0  0  0  0  0  0  0  0  0  0  0  0
   -0.0000   -3.6073    0.0000 C   0  0  0  0  0  0  0  0  0  0  0  0
    1.2135   -2.7256    0.0000 N   0  0  0  0  0  0  0  0  0  0  0  0
    2.6401   -3.1891    0.0000 C   0  0  0  0  0  0  0  0  0  0  0  0
    2.9520   -4.6564    0.0000 C   0  0  0  0  0  0  0  0  0  0  0  0
    3.7548   -2.1855    0.0000 C   0  0  0  0  0  0  0  0  0  0  0  0
    0.7500   -1.2990    0.0000 C   0  0  0  0  0  0  0  0  0  0  0  0
    1.5000    0.0000    0.0000 N   0  0  0  0  0  0  0  0  0  0  0  0
    0.7500    1.2990    0.0000 C   0  0  0  0  0  0  0  0  0  0  0  0
   -0.7500    1.2990    0.0000 N   0  0  0  0  0  0  0  0  0  0  0  0
   -1.5000    0.0000    0.0000 C   0  0  0  0  0  0  0  0  0  0  0  0
   -0.7500   -1.2990    0.0000 C   0  0  0  0  0  0  0  0  0  0  0  0
   -4.3786   -5.1199    0.0000 C   0  0  0  0  0  0  0  0  0  0  0  0
  1  2  1  0
  2  3  2  0
  3  4  1  0
  4  5  1  0
  5  6  1  0
  5  7  1  0
  5  8  1  0
  4  9  2  0
  9 10  1  0
 10 11  1  0
 11 12  1  0
 12 13  2  0
 12 14  1  0
 14 15  1  0
 15 16  2  0
 16 17  1  0
 17 18  2  0
 18 19  1  0
 19 20  1  0
 20 21  2  0
 20 22  1  0
 22 23  2  0
 23 24  1  0
 24 25  1  0
 25 26  1  0
 25 27  1  0
 24 28  1  0
 28 29  2  0
 29 30  1  0
 30 31  2  0
 31 32  1  0
 32 33  2  0
 19 34  2  0
 10  2  1  0
 34 15  1  0
 33 22  1  0
 33 28  1  0
M  END
>  <Compound_ID>  (292) 
CHEMBL3661490

>  <Molecule Name>  (292) 
nan

>  <Molecular Weight>  (292) 
471.44

>  <AlogP>  (292) 
3.8

>  <Smiles>  (292) 
Cc1cc(C(F)(F)F)nn1CC(=O)Nc1cncc(C(=O)c2cn(C(C)C)c3ncncc23)c1

>  <Standard Type>  (292) 
IC50

>  <Standard Relation>  (292) 
'='

>  <Standard Units>  (292) 
nM

>  <Standard Value>  (292) 
5.45

>  <Assay ChEMBL ID>  (292) 
CHEMBL3887033

>  <Assay Description>  (292) 
Enzyme Assay: Isolated TRK Enzyme assays use the HTRF KinEASE-TK kit (Cisbio Cat# 62TK0PEJ) with recombinant His-tagged cytoplasmic domains of each TRK receptor sourced from Invitrogen (see table below). This activity-assay measures the phosphorylation of tyrosine residues within a substrate from the HTRF kit which has been validated by Cisbio for a variety of tyrosine kinases including the TRK receptors. Assay details: Target:TRKA; Invitrogen Cat# PV3144; Amino acids:aa 441-796; FAC enzyme:4nM; FAC ATP:40uM; Assay Reaction Time:35min.

>  <BAO Format ID>  (292) 
BAO_0000357

>  <BAO Label>  (292) 
single protein format

>  <Assay Organism>  (292) 
None

>  <Target ChEMBL ID>  (292) 
CHEMBL2815

>  <Target Name>  (292) 
Nerve growth factor receptor Trk-A

>  <Target Organism>  (292) 
Homo sapiens

>  <Target Type>  (292) 
SINGLE PROTEIN

>  <Document ChEMBL ID>  (292) 
CHEMBL3639348

>  <Source Description>  (292) 
BindingDB Database

>  <Document Journal>  (292) 
nan

>  <Document Year>  (292) 
2014.0

>  <Active>  (292) 
1.0

>  <bits>  (292) 
<rdkit.DataStructs.cDataStructs.ExplicitBitVect object at 0x00000159F543F8B0>

>  <Group>  (292) 
G2

$$$$

     RDKit          2D

 42 47  0  0  0  0  0  0  0  0999 V2000
   -3.5736    1.2902    0.0000 C   0  0  0  0  0  0  0  0  0  0  0  0
   -2.1470    1.7537    0.0000 C   0  0  0  0  0  0  0  0  0  0  0  0
   -1.8351    3.2209    0.0000 C   0  0  0  0  0  0  0  0  0  0  0  0
   -0.4086    3.6844    0.0000 C   0  0  0  0  0  0  0  0  0  0  0  0
    0.7062    2.6807    0.0000 C   0  0  0  0  0  0  0  0  0  0  0  0
    0.3943    1.2135    0.0000 C   0  0  0  0  0  0  0  0  0  0  0  0
    1.2760    0.0000    0.0000 N   0  0  0  0  0  0  0  0  0  0  0  0
    0.3943   -1.2135    0.0000 C   0  0  0  0  0  0  0  0  0  0  0  0
    0.8578   -2.6401    0.0000 C   0  0  0  0  0  0  0  0  0  0  0  0
   -0.1459   -3.7548    0.0000 C   0  0  0  0  0  0  0  0  0  0  0  0
   -1.6131   -3.4430    0.0000 N   0  0  0  0  0  0  0  0  0  0  0  0
   -2.6168   -4.5577    0.0000 C   0  0  0  0  0  0  0  0  0  0  0  0
   -4.0840   -4.2458    0.0000 C   0  0  0  0  0  0  0  0  0  0  0  0
   -2.1533   -5.9843    0.0000 C   0  0  0  0  0  0  0  0  0  0  0  0
   -3.1570   -7.0990    0.0000 C   0  0  0  0  0  0  0  0  0  0  0  0
   -4.6242   -6.7871    0.0000 C   0  0  0  0  0  0  0  0  0  0  0  0
   -5.0877   -5.3605    0.0000 F   0  0  0  0  0  0  0  0  0  0  0  0
   -5.6279   -7.9018    0.0000 C   0  0  0  0  0  0  0  0  0  0  0  0
   -7.0951   -7.5900    0.0000 F   0  0  0  0  0  0  0  0  0  0  0  0
   -5.1644   -9.3284    0.0000 C   0  0  0  0  0  0  0  0  0  0  0  0
   -3.6971   -9.6403    0.0000 C   0  0  0  0  0  0  0  0  0  0  0  0
   -3.2336  -11.0669    0.0000 F   0  0  0  0  0  0  0  0  0  0  0  0
   -2.6934   -8.5256    0.0000 C   0  0  0  0  0  0  0  0  0  0  0  0
   -1.2262   -8.8374    0.0000 F   0  0  0  0  0  0  0  0  0  0  0  0
    0.3177   -5.1814    0.0000 C   0  0  0  0  0  0  0  0  0  0  0  0
    1.7849   -5.4933    0.0000 C   0  0  0  0  0  0  0  0  0  0  0  0
    2.7886   -4.3786    0.0000 N   0  0  0  0  0  0  0  0  0  0  0  0
    2.3250   -2.9520    0.0000 C   0  0  0  0  0  0  0  0  0  0  0  0
    3.3287   -1.8373    0.0000 O   0  0  0  0  0  0  0  0  0  0  0  0
   -1.0323   -0.7500    0.0000 N   0  0  0  0  0  0  0  0  0  0  0  0
   -1.0323    0.7500    0.0000 C   0  0  0  0  0  0  0  0  0  0  0  0
   -0.4086    5.1844    0.0000 C   0  0  0  0  0  0  0  0  0  0  0  0
   -1.8351    5.6480    0.0000 N   0  0  0  0  0  0  0  0  0  0  0  0
   -2.2987    7.0746    0.0000 C   0  0  0  0  0  0  0  0  0  0  0  0
   -1.2950    8.1893    0.0000 C   0  0  0  0  0  0  0  0  0  0  0  0
   -1.7585    9.6159    0.0000 C   0  0  0  0  0  0  0  0  0  0  0  0
   -3.2257    9.9277    0.0000 N   0  0  0  0  0  0  0  0  0  0  0  0
   -3.6892   11.3543    0.0000 C   0  0  0  0  0  0  0  0  0  0  0  0
   -4.2294    8.8130    0.0000 C   0  0  0  0  0  0  0  0  0  0  0  0
   -3.7659    7.3864    0.0000 C   0  0  0  0  0  0  0  0  0  0  0  0
   -2.7168    4.4344    0.0000 C   0  0  0  0  0  0  0  0  0  0  0  0
   -4.2168    4.4344    0.0000 O   0  0  0  0  0  0  0  0  0  0  0  0
  1  2  1  0
  2  3  2  0
  3  4  1  0
  4  5  2  0
  5  6  1  0
  6  7  1  0
  7  8  2  0
  8  9  1  0
  9 10  2  0
 10 11  1  0
 11 12  1  0
 12 13  1  0
 12 14  1  0
 14 15  1  0
 15 16  2  0
 16 17  1  0
 16 18  1  0
 18 19  1  0
 18 20  2  0
 20 21  1  0
 21 22  1  0
 21 23  2  0
 23 24  1  0
 10 25  1  0
 25 26  2  0
 26 27  1  0
 27 28  1  0
 28 29  2  0
  8 30  1  0
 30 31  1  0
  4 32  1  0
 32 33  1  0
 33 34  1  0
 34 35  1  0
 35 36  1  0
 36 37  1  0
 37 38  1  0
 37 39  1  0
 39 40  1  0
 33 41  1  0
 41 42  2  0
 31  2  1  0
 40 34  1  0
 41  3  1  0
 31  6  2  0
 28  9  1  0
 23 15  1  0
M  END
>  <Compound_ID>  (293) 
CHEMBL3671319

>  <Molecule Name>  (293) 
nan

>  <Molecular Weight>  (293) 
582.6

>  <AlogP>  (293) 
4.88

>  <Smiles>  (293) 
Cc1c2c(cc3nc(-c4c(NC(C)Cc5c(F)c(F)cc(F)c5F)cc[nH]c4=O)[nH]c13)CN(C1CCN(C)CC1)C2=O

>  <Standard Type>  (293) 
IC50

>  <Standard Relation>  (293) 
'='

>  <Standard Units>  (293) 
nM

>  <Standard Value>  (293) 
10.37

>  <Assay ChEMBL ID>  (293) 
CHEMBL3887072

>  <Assay Description>  (293) 
In Vitro Kinase Activity Assay: Compounds to be tested were dissolved in 100% DMSO in a range of concentrations from 10-8 to 10-3 M including negative control (DMSO), then diluted with Kinase Buffer (50 mM HEPES, pH 7.5, 1 mM EGTA, 10 mM MgCl2, 0.01% Tween-20, and 2 mM DTT, added fresh) to 4x the final concentration. The final curve included 11 concentrations (10-11 to 10-5 M) plus negative control DMSO tested in triplicate.Kinase and ATP concentrations necessary for optimal activity were determined in separate experiments. (Table 2). Briefly, increasing concentrations of kinase were incubated in a fixed concentration of ATP (200 uM) in Kinase Buffer to determine maximal activity at various time points (30-120 min). The concentration of kinase that resulted in maximal activity with the shortest incubation time was then incubated in Kinase Buffer with increasing concentrations of ATP.

>  <BAO Format ID>  (293) 
BAO_0000357

>  <BAO Label>  (293) 
single protein format

>  <Assay Organism>  (293) 
None

>  <Target ChEMBL ID>  (293) 
CHEMBL2815

>  <Target Name>  (293) 
Nerve growth factor receptor Trk-A

>  <Target Organism>  (293) 
Homo sapiens

>  <Target Type>  (293) 
SINGLE PROTEIN

>  <Document ChEMBL ID>  (293) 
CHEMBL3639188

>  <Source Description>  (293) 
BindingDB Database

>  <Document Journal>  (293) 
nan

>  <Document Year>  (293) 
2014.0

>  <Active>  (293) 
1.0

>  <bits>  (293) 
<rdkit.DataStructs.cDataStructs.ExplicitBitVect object at 0x00000159F543E490>

>  <Group>  (293) 
G2

$$$$

     RDKit          2D

 31 34  0  0  0  0  0  0  0  0999 V2000
   -2.9520   -4.6564    0.0000 C   0  0  0  0  0  0  0  0  0  0  0  0
   -2.6401   -3.1891    0.0000 C   0  0  0  0  0  0  0  0  0  0  0  0
   -3.7548   -2.1855    0.0000 C   0  0  0  0  0  0  0  0  0  0  0  0
   -1.2135   -2.7256    0.0000 C   0  0  0  0  0  0  0  0  0  0  0  0
   -0.0000   -3.6073    0.0000 C   0  0  0  0  0  0  0  0  0  0  0  0
    1.2135   -2.7256    0.0000 C   0  0  0  0  0  0  0  0  0  0  0  0
    2.6401   -3.1891    0.0000 C   0  0  0  0  0  0  0  0  0  0  0  0
    3.7548   -2.1855    0.0000 O   0  0  0  0  0  0  0  0  0  0  0  0
    2.9520   -4.6564    0.0000 C   0  0  0  0  0  0  0  0  0  0  0  0
    1.8373   -5.6601    0.0000 C   0  0  0  0  0  0  0  0  0  0  0  0
    2.1491   -7.1273    0.0000 C   0  0  0  0  0  0  0  0  0  0  0  0
    3.5757   -7.5908    0.0000 C   0  0  0  0  0  0  0  0  0  0  0  0
    4.6904   -6.5871    0.0000 C   0  0  0  0  0  0  0  0  0  0  0  0
    6.1170   -7.0506    0.0000 N   0  0  0  0  0  0  0  0  0  0  0  0
    6.4289   -8.5179    0.0000 C   0  0  0  0  0  0  0  0  0  0  0  0
    5.3142   -9.5216    0.0000 O   0  0  0  0  0  0  0  0  0  0  0  0
    7.8555   -8.9814    0.0000 N   0  0  0  0  0  0  0  0  0  0  0  0
    8.1673  -10.4486    0.0000 C   0  0  0  0  0  0  0  0  0  0  0  0
    7.0526  -11.4523    0.0000 C   0  0  0  0  0  0  0  0  0  0  0  0
    7.3645  -12.9195    0.0000 C   0  0  0  0  0  0  0  0  0  0  0  0
    8.7911  -13.3831    0.0000 C   0  0  0  0  0  0  0  0  0  0  0  0
    9.9058  -12.3794    0.0000 C   0  0  0  0  0  0  0  0  0  0  0  0
    9.5939  -10.9121    0.0000 C   0  0  0  0  0  0  0  0  0  0  0  0
    4.3786   -5.1199    0.0000 C   0  0  0  0  0  0  0  0  0  0  0  0
    0.7500   -1.2990    0.0000 C   0  0  0  0  0  0  0  0  0  0  0  0
    1.5000    0.0000    0.0000 C   0  0  0  0  0  0  0  0  0  0  0  0
    3.0000    0.0000    0.0000 N   0  0  0  0  0  0  0  0  0  0  0  0
    0.7500    1.2990    0.0000 N   0  0  0  0  0  0  0  0  0  0  0  0
   -0.7500    1.2990    0.0000 C   0  0  0  0  0  0  0  0  0  0  0  0
   -1.5000    0.0000    0.0000 N   0  0  0  0  0  0  0  0  0  0  0  0
   -0.7500   -1.2990    0.0000 N   0  0  0  0  0  0  0  0  0  0  0  0
  1  2  1  0
  2  3  1  0
  2  4  1  0
  4  5  2  0
  5  6  1  0
  6  7  1  0
  7  8  2  0
  7  9  1  0
  9 10  2  0
 10 11  1  0
 11 12  2  0
 12 13  1  0
 13 14  1  0
 14 15  1  0
 15 16  2  0
 15 17  1  0
 17 18  1  0
 18 19  2  0
 19 20  1  0
 20 21  2  0
 21 22  1  0
 22 23  2  0
 13 24  2  0
  6 25  2  0
 25 26  1  0
 26 27  1  0
 26 28  2  0
 28 29  1  0
 29 30  2  0
 30 31  1  0
 31  4  1  0
 24  9  1  0
 31 25  1  0
 23 18  1  0
M  END
>  <Compound_ID>  (294) 
CHEMBL4515809

>  <Molecule Name>  (294) 
nan

>  <Molecular Weight>  (294) 
414.47

>  <AlogP>  (294) 
4.31

>  <Smiles>  (294) 
CC(C)c1cc(C(=O)c2cccc(NC(=O)Nc3ccccc3)c2)c2c(N)ncnn12

>  <Standard Type>  (294) 
IC50

>  <Standard Relation>  (294) 
'='

>  <Standard Units>  (294) 
nM

>  <Standard Value>  (294) 
2.0

>  <Assay ChEMBL ID>  (294) 
CHEMBL4349466

>  <Assay Description>  (294) 
Inhibition TRKA (unknown origin)

>  <BAO Format ID>  (294) 
BAO_0000357

>  <BAO Label>  (294) 
single protein format

>  <Assay Organism>  (294) 
Homo sapiens

>  <Target ChEMBL ID>  (294) 
CHEMBL2815

>  <Target Name>  (294) 
Nerve growth factor receptor Trk-A

>  <Target Organism>  (294) 
Homo sapiens

>  <Target Type>  (294) 
SINGLE PROTEIN

>  <Document ChEMBL ID>  (294) 
CHEMBL4346723

>  <Source Description>  (294) 
Scientific Literature

>  <Document Journal>  (294) 
Eur J Med Chem

>  <Document Year>  (294) 
2019.0

>  <Active>  (294) 
1.0

>  <bits>  (294) 
<rdkit.DataStructs.cDataStructs.ExplicitBitVect object at 0x00000159F543E9D0>

>  <Group>  (294) 
G2

$$$$

     RDKit          2D

 32 35  0  0  0  0  0  0  0  0999 V2000
    3.7500   -1.2990    0.0000 C   0  0  0  0  0  0  0  0  0  0  0  0
    3.0000   -2.5981    0.0000 C   0  0  0  0  0  0  0  0  0  0  0  0
    3.7500   -3.8971    0.0000 C   0  0  0  0  0  0  0  0  0  0  0  0
    5.2500   -3.8971    0.0000 C   0  0  0  0  0  0  0  0  0  0  0  0
    6.0000   -5.1962    0.0000 C   0  0  0  0  0  0  0  0  0  0  0  0
    7.5000   -5.1962    0.0000 F   0  0  0  0  0  0  0  0  0  0  0  0
    5.2500   -6.4952    0.0000 C   0  0  0  0  0  0  0  0  0  0  0  0
    3.7500   -6.4952    0.0000 C   0  0  0  0  0  0  0  0  0  0  0  0
    3.0000   -5.1962    0.0000 C   0  0  0  0  0  0  0  0  0  0  0  0
    1.5000   -5.1962    0.0000 F   0  0  0  0  0  0  0  0  0  0  0  0
    1.5000   -2.5981    0.0000 N   0  0  0  0  0  0  0  0  0  0  0  0
    0.7500   -3.8971    0.0000 C   0  0  0  0  0  0  0  0  0  0  0  0
    0.7500   -1.2990    0.0000 C   0  0  0  0  0  0  0  0  0  0  0  0
    1.5000    0.0000    0.0000 C   0  0  0  0  0  0  0  0  0  0  0  0
    0.7500    1.2990    0.0000 C   0  0  0  0  0  0  0  0  0  0  0  0
   -0.7500    1.2990    0.0000 N   0  0  0  0  0  0  0  0  0  0  0  0
   -1.7537    2.4138    0.0000 N   0  0  0  0  0  0  0  0  0  0  0  0
   -3.1240    1.8037    0.0000 C   0  0  0  0  0  0  0  0  0  0  0  0
   -2.9672    0.3119    0.0000 C   0  0  0  0  0  0  0  0  0  0  0  0
   -4.0819   -0.6918    0.0000 N   0  0  0  0  0  0  0  0  0  0  0  0
   -5.5085   -0.2283    0.0000 C   0  0  0  0  0  0  0  0  0  0  0  0
   -5.8204    1.2389    0.0000 O   0  0  0  0  0  0  0  0  0  0  0  0
   -6.6232   -1.2320    0.0000 N   0  0  0  0  0  0  0  0  0  0  0  0
   -8.0498   -0.7685    0.0000 C   0  0  0  0  0  0  0  0  0  0  0  0
   -9.1645   -1.7722    0.0000 C   0  0  0  0  0  0  0  0  0  0  0  0
   -8.8527   -3.2394    0.0000 C   0  0  0  0  0  0  0  0  0  0  0  0
   -7.4261   -3.7029    0.0000 C   0  0  0  0  0  0  0  0  0  0  0  0
   -7.1142   -5.1701    0.0000 C   0  0  0  0  0  0  0  0  0  0  0  0
   -8.2289   -6.1738    0.0000 O   0  0  0  0  0  0  0  0  0  0  0  0
   -6.3114   -2.6992    0.0000 C   0  0  0  0  0  0  0  0  0  0  0  0
   -1.5000    0.0000    0.0000 C   0  0  0  0  0  0  0  0  0  0  0  0
   -0.7500   -1.2990    0.0000 N   0  0  0  0  0  0  0  0  0  0  0  0
  2  1  1  6
  2  3  1  0
  3  4  2  0
  4  5  1  0
  5  6  1  0
  5  7  2  0
  7  8  1  0
  8  9  2  0
  9 10  1  0
  2 11  1  0
 11 12  1  0
 11 13  1  0
 13 14  1  0
 14 15  2  0
 15 16  1  0
 16 17  1  0
 17 18  2  0
 18 19  1  0
 19 20  1  0
 20 21  1  0
 21 22  2  0
 21 23  1  0
 23 24  1  0
 24 25  1  0
 25 26  1  0
 26 27  1  0
 27 28  1  0
 28 29  1  0
 27 30  1  0
 19 31  2  0
 31 32  1  0
  9  3  1  0
 32 13  2  0
 31 16  1  0
 30 23  1  0
M  END
>  <Compound_ID>  (295) 
CHEMBL4791453

>  <Molecule Name>  (295) 
nan

>  <Molecular Weight>  (295) 
444.49

>  <AlogP>  (295) 
3.44

>  <Smiles>  (295) 
C[C@H](c1cc(F)ccc1F)N(C)c1ccn2ncc(NC(=O)N3CCCC(CO)C3)c2n1

>  <Standard Type>  (295) 
IC50

>  <Standard Relation>  (295) 
'='

>  <Standard Units>  (295) 
nM

>  <Standard Value>  (295) 
18.0

>  <Assay ChEMBL ID>  (295) 
CHEMBL4678168

>  <Assay Description>  (295) 
Inhibition of Trk-A (unknown origin)

>  <BAO Format ID>  (295) 
BAO_0000357

>  <BAO Label>  (295) 
single protein format

>  <Assay Organism>  (295) 
Homo sapiens

>  <Target ChEMBL ID>  (295) 
CHEMBL2815

>  <Target Name>  (295) 
Nerve growth factor receptor Trk-A

>  <Target Organism>  (295) 
Homo sapiens

>  <Target Type>  (295) 
SINGLE PROTEIN

>  <Document ChEMBL ID>  (295) 
CHEMBL4673327

>  <Source Description>  (295) 
Scientific Literature

>  <Document Journal>  (295) 
Bioorg Med Chem Lett

>  <Document Year>  (295) 
2021.0

>  <Active>  (295) 
1.0

>  <bits>  (295) 
<rdkit.DataStructs.cDataStructs.ExplicitBitVect object at 0x00000159F543F6F0>

>  <Group>  (295) 
G2

$$$$

     RDKit          2D

 29 32  0  0  0  0  0  0  0  0999 V2000
   -0.7500   -3.8971    0.0000 C   0  0  0  0  0  0  0  0  0  0  0  0
    0.7500   -3.8971    0.0000 C   0  0  0  0  0  0  0  0  0  0  0  0
    1.5000   -2.5981    0.0000 N   0  0  0  0  0  0  0  0  0  0  0  0
    0.7500   -1.2990    0.0000 C   0  0  0  0  0  0  0  0  0  0  0  0
    1.5000    0.0000    0.0000 C   0  0  0  0  0  0  0  0  0  0  0  0
    0.7500    1.2990    0.0000 C   0  0  0  0  0  0  0  0  0  0  0  0
   -0.7500    1.2990    0.0000 N   0  0  0  0  0  0  0  0  0  0  0  0
   -1.7537    2.4138    0.0000 N   0  0  0  0  0  0  0  0  0  0  0  0
   -3.1240    1.8037    0.0000 C   0  0  0  0  0  0  0  0  0  0  0  0
   -2.9672    0.3119    0.0000 C   0  0  0  0  0  0  0  0  0  0  0  0
   -4.0819   -0.6918    0.0000 N   0  0  0  0  0  0  0  0  0  0  0  0
   -5.5085   -0.2283    0.0000 C   0  0  0  0  0  0  0  0  0  0  0  0
   -5.8204    1.2389    0.0000 S   0  0  0  0  0  0  0  0  0  0  0  0
   -6.6232   -1.2320    0.0000 N   0  0  0  0  0  0  0  0  0  0  0  0
   -6.4664   -2.7238    0.0000 C   0  0  0  0  0  0  0  0  0  0  0  0
   -7.8368   -3.3339    0.0000 C   0  0  0  0  0  0  0  0  0  0  0  0
   -8.8405   -2.2192    0.0000 C   0  0  0  0  0  0  0  0  0  0  0  0
  -10.3322   -2.3760    0.0000 O   0  0  0  0  0  0  0  0  0  0  0  0
   -8.0905   -0.9201    0.0000 C   0  0  0  0  0  0  0  0  0  0  0  0
   -1.5000    0.0000    0.0000 C   0  0  0  0  0  0  0  0  0  0  0  0
   -0.7500   -1.2990    0.0000 N   0  0  0  0  0  0  0  0  0  0  0  0
    1.5000   -5.1962    0.0000 C   0  0  0  0  0  0  0  0  0  0  0  0
    3.0000   -5.1962    0.0000 C   0  0  0  0  0  0  0  0  0  0  0  0
    3.7500   -6.4952    0.0000 C   0  0  0  0  0  0  0  0  0  0  0  0
    5.2500   -6.4952    0.0000 F   0  0  0  0  0  0  0  0  0  0  0  0
    3.0000   -7.7942    0.0000 C   0  0  0  0  0  0  0  0  0  0  0  0
    1.5000   -7.7942    0.0000 C   0  0  0  0  0  0  0  0  0  0  0  0
    0.7500   -6.4952    0.0000 C   0  0  0  0  0  0  0  0  0  0  0  0
   -0.7500   -6.4952    0.0000 F   0  0  0  0  0  0  0  0  0  0  0  0
  2  1  1  1
  2  3  1  0
  3  4  1  0
  4  5  1  0
  5  6  2  0
  6  7  1  0
  7  8  1  0
  8  9  2  0
  9 10  1  0
 10 11  1  0
 11 12  1  0
 12 13  2  0
 12 14  1  0
 14 15  1  0
 15 16  1  0
 16 17  1  0
 17 18  1  6
 17 19  1  0
 10 20  2  0
 20 21  1  0
  2 22  1  0
 22 23  2  0
 23 24  1  0
 24 25  1  0
 24 26  2  0
 26 27  1  0
 27 28  2  0
 28 29  1  0
 21  4  2  0
 28 22  1  0
 20  7  1  0
 19 14  1  0
M  END
>  <Compound_ID>  (296) 
CHEMBL4778629

>  <Molecule Name>  (296) 
nan

>  <Molecular Weight>  (296) 
418.47

>  <AlogP>  (296) 
2.94

>  <Smiles>  (296) 
C[C@@H](Nc1ccn2ncc(NC(=S)N3CC[C@H](O)C3)c2n1)c1cc(F)ccc1F

>  <Standard Type>  (296) 
IC50

>  <Standard Relation>  (296) 
'='

>  <Standard Units>  (296) 
nM

>  <Standard Value>  (296) 
54.0

>  <Assay ChEMBL ID>  (296) 
CHEMBL4678168

>  <Assay Description>  (296) 
Inhibition of Trk-A (unknown origin)

>  <BAO Format ID>  (296) 
BAO_0000357

>  <BAO Label>  (296) 
single protein format

>  <Assay Organism>  (296) 
Homo sapiens

>  <Target ChEMBL ID>  (296) 
CHEMBL2815

>  <Target Name>  (296) 
Nerve growth factor receptor Trk-A

>  <Target Organism>  (296) 
Homo sapiens

>  <Target Type>  (296) 
SINGLE PROTEIN

>  <Document ChEMBL ID>  (296) 
CHEMBL4673327

>  <Source Description>  (296) 
Scientific Literature

>  <Document Journal>  (296) 
Bioorg Med Chem Lett

>  <Document Year>  (296) 
2021.0

>  <Active>  (296) 
1.0

>  <bits>  (296) 
<rdkit.DataStructs.cDataStructs.ExplicitBitVect object at 0x00000159F543EB90>

>  <Group>  (296) 
G2

$$$$

     RDKit          2D

 31 34  0  0  0  0  0  0  0  0999 V2000
   -2.8717  -15.1747    0.0000 C   0  0  0  0  0  0  0  0  0  0  0  0
   -1.7570  -14.1710    0.0000 C   0  0  0  0  0  0  0  0  0  0  0  0
   -0.2897  -14.4829    0.0000 C   0  0  0  0  0  0  0  0  0  0  0  0
    0.4603  -13.1838    0.0000 C   0  0  0  0  0  0  0  0  0  0  0  0
    1.9521  -13.0270    0.0000 C   0  0  0  0  0  0  0  0  0  0  0  0
   -0.5434  -12.0691    0.0000 N   0  0  0  0  0  0  0  0  0  0  0  0
   -0.2316  -10.6019    0.0000 C   0  0  0  0  0  0  0  0  0  0  0  0
   -1.3463   -9.5982    0.0000 C   0  0  0  0  0  0  0  0  0  0  0  0
   -2.7729  -10.0617    0.0000 O   0  0  0  0  0  0  0  0  0  0  0  0
   -1.0344   -8.1310    0.0000 N   0  0  0  0  0  0  0  0  0  0  0  0
   -2.1491   -7.1273    0.0000 C   0  0  0  0  0  0  0  0  0  0  0  0
   -1.8373   -5.6601    0.0000 C   0  0  0  0  0  0  0  0  0  0  0  0
   -2.9520   -4.6564    0.0000 C   0  0  0  0  0  0  0  0  0  0  0  0
   -2.6401   -3.1891    0.0000 C   0  0  0  0  0  0  0  0  0  0  0  0
   -3.7548   -2.1855    0.0000 O   0  0  0  0  0  0  0  0  0  0  0  0
   -1.2135   -2.7256    0.0000 C   0  0  0  0  0  0  0  0  0  0  0  0
   -0.0000   -3.6073    0.0000 C   0  0  0  0  0  0  0  0  0  0  0  0
    1.2135   -2.7256    0.0000 N   0  0  0  0  0  0  0  0  0  0  0  0
    2.6401   -3.1891    0.0000 C   0  0  0  0  0  0  0  0  0  0  0  0
    2.9520   -4.6564    0.0000 C   0  0  0  0  0  0  0  0  0  0  0  0
    3.7548   -2.1855    0.0000 C   0  0  0  0  0  0  0  0  0  0  0  0
    0.7500   -1.2990    0.0000 C   0  0  0  0  0  0  0  0  0  0  0  0
    1.5000    0.0000    0.0000 C   0  0  0  0  0  0  0  0  0  0  0  0
    0.7500    1.2990    0.0000 C   0  0  0  0  0  0  0  0  0  0  0  0
   -0.7500    1.2990    0.0000 N   0  0  0  0  0  0  0  0  0  0  0  0
   -1.5000    0.0000    0.0000 C   0  0  0  0  0  0  0  0  0  0  0  0
   -0.7500   -1.2990    0.0000 C   0  0  0  0  0  0  0  0  0  0  0  0
   -4.3786   -5.1199    0.0000 C   0  0  0  0  0  0  0  0  0  0  0  0
   -4.6904   -6.5871    0.0000 C   0  0  0  0  0  0  0  0  0  0  0  0
   -3.5757   -7.5908    0.0000 N   0  0  0  0  0  0  0  0  0  0  0  0
   -1.9137  -12.6792    0.0000 N   0  0  0  0  0  0  0  0  0  0  0  0
  1  2  1  0
  2  3  1  0
  3  4  2  0
  4  5  1  0
  4  6  1  0
  6  7  1  0
  7  8  1  0
  8  9  2  0
  8 10  1  0
 10 11  1  0
 11 12  2  0
 12 13  1  0
 13 14  1  0
 14 15  2  0
 14 16  1  0
 16 17  2  0
 17 18  1  0
 18 19  1  0
 19 20  1  0
 19 21  1  0
 18 22  1  0
 22 23  2  0
 23 24  1  0
 24 25  2  0
 25 26  1  0
 26 27  2  0
 13 28  2  0
 28 29  1  0
 29 30  2  0
  6 31  1  0
 31  2  2  0
 30 11  1  0
 27 16  1  0
 27 22  1  0
M  END
>  <Compound_ID>  (297) 
CHEMBL3922568

>  <Molecule Name>  (297) 
nan

>  <Molecular Weight>  (297) 
416.49

>  <AlogP>  (297) 
3.7

>  <Smiles>  (297) 
Cc1cc(C)n(CC(=O)Nc2cc(C(=O)c3cn(C(C)C)c4ccncc34)ccn2)n1

>  <Standard Type>  (297) 
IC50

>  <Standard Relation>  (297) 
'='

>  <Standard Units>  (297) 
nM

>  <Standard Value>  (297) 
33.0

>  <Assay ChEMBL ID>  (297) 
CHEMBL3887111

>  <Assay Description>  (297) 
HTRF Assay: Isolated TRK Enzyme assays use the HTRF KinEASE-TK kit (Cisbio Cat#62TK0PEJ) with recombinant His-tagged cytoplasmic domains of each TRK receptor sourced from Invitrogen (see table below). This activity-assay measures the phosphorylation of tyrosine residues within a substrate from the HTRF kit which has been validated by Cisbio for a variety of tyrosine kinases including the TRK receptors.Assay Details: Invitrogen Amino FAC FAC Assay ReactionTarget Cat# acids enzyme ATP TimeTRKA PV3144 aa 441-4 nM 40 uM 35 min (NTRK1) 796 TRKB PV3616 aa 526-1 nM 1.4 uM 40 min (NTRK2) 838 TRKC PV3617 aa 510- 10 nM 15 uM 30 min (NTRK3) 8250.5 mM stock solutions of test compounds are prepared and serially diluted in 100% DMSO. A standard curve using the compound of Example 135 disclosed in WO2005/116035 of 150 uM is also prepared on each test plate. High percentage effect (HPE) is defined by 150 uM.

>  <BAO Format ID>  (297) 
BAO_0000357

>  <BAO Label>  (297) 
single protein format

>  <Assay Organism>  (297) 
None

>  <Target ChEMBL ID>  (297) 
CHEMBL2815

>  <Target Name>  (297) 
Nerve growth factor receptor Trk-A

>  <Target Organism>  (297) 
Homo sapiens

>  <Target Type>  (297) 
SINGLE PROTEIN

>  <Document ChEMBL ID>  (297) 
CHEMBL3886170

>  <Source Description>  (297) 
BindingDB Database

>  <Document Journal>  (297) 
nan

>  <Document Year>  (297) 
2015.0

>  <Active>  (297) 
1.0

>  <bits>  (297) 
<rdkit.DataStructs.cDataStructs.ExplicitBitVect object at 0x00000159F543FA00>

>  <Group>  (297) 
G2

$$$$

     RDKit          2D

 36 40  0  0  0  0  0  0  0  0999 V2000
  -10.9341    7.7749    0.0000 C   0  0  0  0  0  0  0  0  0  0  0  0
  -11.2460    6.3076    0.0000 O   0  0  0  0  0  0  0  0  0  0  0  0
  -10.1313    5.3039    0.0000 C   0  0  0  0  0  0  0  0  0  0  0  0
   -8.7047    5.7675    0.0000 C   0  0  0  0  0  0  0  0  0  0  0  0
   -7.5900    4.7638    0.0000 C   0  0  0  0  0  0  0  0  0  0  0  0
   -7.9018    3.2966    0.0000 C   0  0  0  0  0  0  0  0  0  0  0  0
   -6.7871    2.2929    0.0000 C   0  0  0  0  0  0  0  0  0  0  0  0
   -7.0990    0.8256    0.0000 O   0  0  0  0  0  0  0  0  0  0  0  0
   -5.9843   -0.1781    0.0000 C   0  0  0  0  0  0  0  0  0  0  0  0
   -6.2961   -1.6453    0.0000 C   0  0  0  0  0  0  0  0  0  0  0  0
   -5.1814   -2.6490    0.0000 C   0  0  0  0  0  0  0  0  0  0  0  0
   -3.7548   -2.1855    0.0000 C   0  0  0  0  0  0  0  0  0  0  0  0
   -2.6401   -3.1891    0.0000 C   0  0  0  0  0  0  0  0  0  0  0  0
   -1.2135   -2.7256    0.0000 N   0  0  0  0  0  0  0  0  0  0  0  0
   -0.0000   -3.6073    0.0000 C   0  0  0  0  0  0  0  0  0  0  0  0
    0.0000   -5.1073    0.0000 N   0  0  0  0  0  0  0  0  0  0  0  0
    1.2135   -2.7256    0.0000 N   0  0  0  0  0  0  0  0  0  0  0  0
    0.7500   -1.2990    0.0000 C   0  0  0  0  0  0  0  0  0  0  0  0
    1.5000    0.0000    0.0000 C   0  0  0  0  0  0  0  0  0  0  0  0
    0.7500    1.2990    0.0000 C   0  0  0  0  0  0  0  0  0  0  0  0
    1.5000    2.5981    0.0000 C   0  0  0  0  0  0  0  0  0  0  0  0
    3.0000    2.5981    0.0000 C   0  0  0  0  0  0  0  0  0  0  0  0
    3.7500    3.8971    0.0000 C   0  0  0  0  0  0  0  0  0  0  0  0
    3.0000    5.1962    0.0000 C   0  0  0  0  0  0  0  0  0  0  0  0
    3.7500    6.4952    0.0000 F   0  0  0  0  0  0  0  0  0  0  0  0
    1.5000    5.1962    0.0000 C   0  0  0  0  0  0  0  0  0  0  0  0
    0.7500    3.8971    0.0000 C   0  0  0  0  0  0  0  0  0  0  0  0
   -0.7500    1.2990    0.0000 C   0  0  0  0  0  0  0  0  0  0  0  0
   -1.5000    0.0000    0.0000 N   0  0  0  0  0  0  0  0  0  0  0  0
   -0.7500   -1.2990    0.0000 C   0  0  0  0  0  0  0  0  0  0  0  0
   -3.4430   -0.7182    0.0000 C   0  0  0  0  0  0  0  0  0  0  0  0
   -4.5577    0.2855    0.0000 C   0  0  0  0  0  0  0  0  0  0  0  0
   -4.2458    1.7527    0.0000 O   0  0  0  0  0  0  0  0  0  0  0  0
   -5.3605    2.7564    0.0000 C   0  0  0  0  0  0  0  0  0  0  0  0
   -9.3284    2.8330    0.0000 C   0  0  0  0  0  0  0  0  0  0  0  0
  -10.4431    3.8367    0.0000 N   0  0  0  0  0  0  0  0  0  0  0  0
  1  2  1  0
  2  3  1  0
  3  4  2  0
  4  5  1  0
  5  6  2  0
  6  7  1  0
  7  8  1  0
  8  9  1  0
  9 10  2  0
 10 11  1  0
 11 12  2  0
 12 13  1  0
 13 14  1  0
 14 15  1  0
 15 16  1  0
 15 17  2  0
 17 18  1  0
 18 19  2  0
 19 20  1  0
 20 21  1  0
 21 22  2  0
 22 23  1  0
 23 24  2  0
 24 25  1  0
 24 26  1  0
 26 27  2  0
 20 28  2  0
 28 29  1  0
 29 30  2  0
 12 31  1  0
 31 32  2  0
 32 33  1  0
 33 34  1  0
  6 35  1  0
 35 36  2  0
 36  3  1  0
 32  9  1  0
 30 14  1  0
 30 18  1  0
 27 21  1  0
M  END
>  <Compound_ID>  (298) 
CHEMBL3673482

>  <Molecule Name>  (298) 
nan

>  <Molecular Weight>  (298) 
485.52

>  <AlogP>  (298) 
4.86

>  <Smiles>  (298) 
COc1ccc(COc2ccc(Cn3c(N)nc4cc(-c5ccc(F)cc5)cnc43)cc2OC)cn1

>  <Standard Type>  (298) 
IC50

>  <Standard Relation>  (298) 
'='

>  <Standard Units>  (298) 
nM

>  <Standard Value>  (298) 
9.0

>  <Assay ChEMBL ID>  (298) 
CHEMBL3887112

>  <Assay Description>  (298) 
Inhibition Assay: Reagents and consumables were purchased from Sigma Aldrich, Carna Biosciences, or Caliper Life Sciences. All assay reaction conditions for IC50 determinations were within the linear range with respect to time and enzyme concentration. In a 384 well polypropylene plate, TrkA (0.4 nM, Carna 08-186) was pre-incubated in a 100 mM Hepes-NaOH pH 7.5 buffer containing 0.01% Triton X-100, 10 mM MgCl2, 0.1% BSA, 1 mM DTT, 10 uM sodium orthovanadate and 10 uM beta-glycerophosphate and compound with a concentration of 2.5% DMSO for 15 minutes at room temperature. The reaction was initiated with an equal volume of peptide substrate (Caliper Life Sciences catalog no. 760430) and ATP in the aforementioned buffer. The final concentrations in the reaction were 200 pM TrkA, 1.5 uM peptide substrate and 55 uM ATP (ATP Km). The reaction was incubated at room temperature for 180 minutes and terminated with a buffer containing excess EDTA (100 mM Hepes-NaOH pH 7.5, 0.02% Brij.

>  <BAO Format ID>  (298) 
BAO_0000357

>  <BAO Label>  (298) 
single protein format

>  <Assay Organism>  (298) 
None

>  <Target ChEMBL ID>  (298) 
CHEMBL2815

>  <Target Name>  (298) 
Nerve growth factor receptor Trk-A

>  <Target Organism>  (298) 
Homo sapiens

>  <Target Type>  (298) 
SINGLE PROTEIN

>  <Document ChEMBL ID>  (298) 
CHEMBL3638818

>  <Source Description>  (298) 
BindingDB Database

>  <Document Journal>  (298) 
nan

>  <Document Year>  (298) 
2015.0

>  <Active>  (298) 
1.0

>  <bits>  (298) 
<rdkit.DataStructs.cDataStructs.ExplicitBitVect object at 0x00000159F543F140>

>  <Group>  (298) 
G2

$$$$

     RDKit          2D

 31 35  0  0  0  0  0  0  0  0999 V2000
   -2.9520   -4.6564    0.0000 C   0  0  0  0  0  0  0  0  0  0  0  0
   -2.6401   -3.1891    0.0000 C   0  0  0  0  0  0  0  0  0  0  0  0
   -3.7548   -2.1855    0.0000 C   0  0  0  0  0  0  0  0  0  0  0  0
   -1.2135   -2.7256    0.0000 N   0  0  0  0  0  0  0  0  0  0  0  0
   -0.0000   -3.6073    0.0000 C   0  0  0  0  0  0  0  0  0  0  0  0
    1.2135   -2.7256    0.0000 C   0  0  0  0  0  0  0  0  0  0  0  0
    2.6401   -3.1891    0.0000 C   0  0  0  0  0  0  0  0  0  0  0  0
    3.7548   -2.1855    0.0000 O   0  0  0  0  0  0  0  0  0  0  0  0
    2.9520   -4.6564    0.0000 C   0  0  0  0  0  0  0  0  0  0  0  0
    1.8373   -5.6601    0.0000 C   0  0  0  0  0  0  0  0  0  0  0  0
    2.1491   -7.1273    0.0000 N   0  0  0  0  0  0  0  0  0  0  0  0
    3.5757   -7.5908    0.0000 C   0  0  0  0  0  0  0  0  0  0  0  0
    4.6904   -6.5871    0.0000 C   0  0  0  0  0  0  0  0  0  0  0  0
    6.1170   -7.0506    0.0000 N   0  0  0  0  0  0  0  0  0  0  0  0
    6.4289   -8.5179    0.0000 C   0  0  0  0  0  0  0  0  0  0  0  0
    5.3142   -9.5216    0.0000 O   0  0  0  0  0  0  0  0  0  0  0  0
    7.8555   -8.9814    0.0000 C   0  0  0  0  0  0  0  0  0  0  0  0
    9.0690   -8.0997    0.0000 N   0  0  0  0  0  0  0  0  0  0  0  0
   10.2825   -8.9814    0.0000 C   0  0  0  0  0  0  0  0  0  0  0  0
    9.8190  -10.4080    0.0000 O   0  0  0  0  0  0  0  0  0  0  0  0
    8.3190  -10.4080    0.0000 C   0  0  0  0  0  0  0  0  0  0  0  0
    7.4373  -11.6215    0.0000 C   0  0  0  0  0  0  0  0  0  0  0  0
    7.2805  -13.1133    0.0000 C   0  0  0  0  0  0  0  0  0  0  0  0
    6.0670  -12.2316    0.0000 C   0  0  0  0  0  0  0  0  0  0  0  0
    4.3786   -5.1199    0.0000 C   0  0  0  0  0  0  0  0  0  0  0  0
    0.7500   -1.2990    0.0000 C   0  0  0  0  0  0  0  0  0  0  0  0
    1.5000    0.0000    0.0000 C   0  0  0  0  0  0  0  0  0  0  0  0
    0.7500    1.2990    0.0000 N   0  0  0  0  0  0  0  0  0  0  0  0
   -0.7500    1.2990    0.0000 C   0  0  0  0  0  0  0  0  0  0  0  0
   -1.5000    0.0000    0.0000 N   0  0  0  0  0  0  0  0  0  0  0  0
   -0.7500   -1.2990    0.0000 C   0  0  0  0  0  0  0  0  0  0  0  0
  1  2  1  0
  2  3  1  0
  2  4  1  0
  4  5  1  0
  5  6  2  0
  6  7  1  0
  7  8  2  0
  7  9  1  0
  9 10  2  0
 10 11  1  0
 11 12  2  0
 12 13  1  0
 13 14  1  0
 14 15  1  0
 15 16  2  0
 15 17  1  0
 17 18  1  0
 18 19  2  0
 19 20  1  0
 20 21  1  0
 21 22  1  0
 22 23  1  0
 23 24  1  0
 13 25  2  0
  6 26  1  0
 26 27  2  0
 27 28  1  0
 28 29  2  0
 29 30  1  0
 30 31  2  0
 31  4  1  0
 25  9  1  0
 31 26  1  0
 21 17  2  0
 24 22  1  0
M  END
>  <Compound_ID>  (299) 
CHEMBL3666368

>  <Molecule Name>  (299) 
nan

>  <Molecular Weight>  (299) 
416.44

>  <AlogP>  (299) 
3.76

>  <Smiles>  (299) 
CC(C)n1cc(C(=O)c2cncc(NC(=O)c3ncoc3C3CC3)c2)c2cncnc21

>  <Standard Type>  (299) 
IC50

>  <Standard Relation>  (299) 
'='

>  <Standard Units>  (299) 
nM

>  <Standard Value>  (299) 
81.6

>  <Assay ChEMBL ID>  (299) 
CHEMBL3887033

>  <Assay Description>  (299) 
Enzyme Assay: Isolated TRK Enzyme assays use the HTRF KinEASE-TK kit (Cisbio Cat# 62TK0PEJ) with recombinant His-tagged cytoplasmic domains of each TRK receptor sourced from Invitrogen (see table below). This activity-assay measures the phosphorylation of tyrosine residues within a substrate from the HTRF kit which has been validated by Cisbio for a variety of tyrosine kinases including the TRK receptors. Assay details: Target:TRKA; Invitrogen Cat# PV3144; Amino acids:aa 441-796; FAC enzyme:4nM; FAC ATP:40uM; Assay Reaction Time:35min.

>  <BAO Format ID>  (299) 
BAO_0000357

>  <BAO Label>  (299) 
single protein format

>  <Assay Organism>  (299) 
None

>  <Target ChEMBL ID>  (299) 
CHEMBL2815

>  <Target Name>  (299) 
Nerve growth factor receptor Trk-A

>  <Target Organism>  (299) 
Homo sapiens

>  <Target Type>  (299) 
SINGLE PROTEIN

>  <Document ChEMBL ID>  (299) 
CHEMBL3639348

>  <Source Description>  (299) 
BindingDB Database

>  <Document Journal>  (299) 
nan

>  <Document Year>  (299) 
2014.0

>  <Active>  (299) 
1.0

>  <bits>  (299) 
<rdkit.DataStructs.cDataStructs.ExplicitBitVect object at 0x00000159F543D150>

>  <Group>  (299) 
G2

$$$$

     RDKit          2D

 30 33  0  0  0  0  0  0  0  0999 V2000
  -11.2984   -1.9377    0.0000 C   0  0  0  0  0  0  0  0  0  0  0  0
  -10.9866   -3.4049    0.0000 C   0  0  0  0  0  0  0  0  0  0  0  0
  -11.9903   -4.5196    0.0000 C   0  0  0  0  0  0  0  0  0  0  0  0
  -11.2403   -5.8186    0.0000 N   0  0  0  0  0  0  0  0  0  0  0  0
   -9.7730   -5.5068    0.0000 N   0  0  0  0  0  0  0  0  0  0  0  0
   -8.6583   -6.5105    0.0000 C   0  0  0  0  0  0  0  0  0  0  0  0
   -7.2317   -6.0469    0.0000 C   0  0  0  0  0  0  0  0  0  0  0  0
   -6.9199   -4.5797    0.0000 O   0  0  0  0  0  0  0  0  0  0  0  0
   -6.1170   -7.0506    0.0000 N   0  0  0  0  0  0  0  0  0  0  0  0
   -4.6904   -6.5871    0.0000 C   0  0  0  0  0  0  0  0  0  0  0  0
   -3.5757   -7.5908    0.0000 C   0  0  0  0  0  0  0  0  0  0  0  0
   -2.1491   -7.1273    0.0000 N   0  0  0  0  0  0  0  0  0  0  0  0
   -1.8373   -5.6601    0.0000 C   0  0  0  0  0  0  0  0  0  0  0  0
   -2.9520   -4.6564    0.0000 C   0  0  0  0  0  0  0  0  0  0  0  0
   -2.6401   -3.1891    0.0000 C   0  0  0  0  0  0  0  0  0  0  0  0
   -3.7548   -2.1855    0.0000 O   0  0  0  0  0  0  0  0  0  0  0  0
   -1.2135   -2.7256    0.0000 C   0  0  0  0  0  0  0  0  0  0  0  0
   -0.0000   -3.6073    0.0000 C   0  0  0  0  0  0  0  0  0  0  0  0
    1.2135   -2.7256    0.0000 N   0  0  0  0  0  0  0  0  0  0  0  0
    2.6401   -3.1891    0.0000 C   0  0  0  0  0  0  0  0  0  0  0  0
    2.9520   -4.6564    0.0000 C   0  0  0  0  0  0  0  0  0  0  0  0
    3.7548   -2.1855    0.0000 C   0  0  0  0  0  0  0  0  0  0  0  0
    0.7500   -1.2990    0.0000 C   0  0  0  0  0  0  0  0  0  0  0  0
    1.5000    0.0000    0.0000 C   0  0  0  0  0  0  0  0  0  0  0  0
    0.7500    1.2990    0.0000 C   0  0  0  0  0  0  0  0  0  0  0  0
   -0.7500    1.2990    0.0000 N   0  0  0  0  0  0  0  0  0  0  0  0
   -1.5000    0.0000    0.0000 C   0  0  0  0  0  0  0  0  0  0  0  0
   -0.7500   -1.2990    0.0000 C   0  0  0  0  0  0  0  0  0  0  0  0
   -4.3786   -5.1199    0.0000 C   0  0  0  0  0  0  0  0  0  0  0  0
   -9.6162   -4.0150    0.0000 C   0  0  0  0  0  0  0  0  0  0  0  0
  1  2  1  0
  2  3  1  0
  3  4  2  0
  4  5  1  0
  5  6  1  0
  6  7  1  0
  7  8  2  0
  7  9  1  0
  9 10  1  0
 10 11  2  0
 11 12  1  0
 12 13  2  0
 13 14  1  0
 14 15  1  0
 15 16  2  0
 15 17  1  0
 17 18  2  0
 18 19  1  0
 19 20  1  0
 20 21  1  0
 20 22  1  0
 19 23  1  0
 23 24  2  0
 24 25  1  0
 25 26  2  0
 26 27  1  0
 27 28  2  0
 14 29  2  0
  5 30  1  0
 30  2  2  0
 29 10  1  0
 28 17  1  0
 28 23  1  0
M  END
>  <Compound_ID>  (300) 
CHEMBL3975709

>  <Molecule Name>  (300) 
nan

>  <Molecular Weight>  (300) 
402.46

>  <AlogP>  (300) 
3.39

>  <Smiles>  (300) 
Cc1cnn(CC(=O)Nc2cncc(C(=O)c3cn(C(C)C)c4ccncc34)c2)c1

>  <Standard Type>  (300) 
IC50

>  <Standard Relation>  (300) 
'='

>  <Standard Units>  (300) 
nM

>  <Standard Value>  (300) 
21.4

>  <Assay ChEMBL ID>  (300) 
CHEMBL3887111

>  <Assay Description>  (300) 
HTRF Assay: Isolated TRK Enzyme assays use the HTRF KinEASE-TK kit (Cisbio Cat#62TK0PEJ) with recombinant His-tagged cytoplasmic domains of each TRK receptor sourced from Invitrogen (see table below). This activity-assay measures the phosphorylation of tyrosine residues within a substrate from the HTRF kit which has been validated by Cisbio for a variety of tyrosine kinases including the TRK receptors.Assay Details: Invitrogen Amino FAC FAC Assay ReactionTarget Cat# acids enzyme ATP TimeTRKA PV3144 aa 441-4 nM 40 uM 35 min (NTRK1) 796 TRKB PV3616 aa 526-1 nM 1.4 uM 40 min (NTRK2) 838 TRKC PV3617 aa 510- 10 nM 15 uM 30 min (NTRK3) 8250.5 mM stock solutions of test compounds are prepared and serially diluted in 100% DMSO. A standard curve using the compound of Example 135 disclosed in WO2005/116035 of 150 uM is also prepared on each test plate. High percentage effect (HPE) is defined by 150 uM.

>  <BAO Format ID>  (300) 
BAO_0000357

>  <BAO Label>  (300) 
single protein format

>  <Assay Organism>  (300) 
None

>  <Target ChEMBL ID>  (300) 
CHEMBL2815

>  <Target Name>  (300) 
Nerve growth factor receptor Trk-A

>  <Target Organism>  (300) 
Homo sapiens

>  <Target Type>  (300) 
SINGLE PROTEIN

>  <Document ChEMBL ID>  (300) 
CHEMBL3886170

>  <Source Description>  (300) 
BindingDB Database

>  <Document Journal>  (300) 
nan

>  <Document Year>  (300) 
2015.0

>  <Active>  (300) 
1.0

>  <bits>  (300) 
<rdkit.DataStructs.cDataStructs.ExplicitBitVect object at 0x00000159F543DBD0>

>  <Group>  (300) 
G2

$$$$

     RDKit          2D

 27 30  0  0  0  0  0  0  0  0999 V2000
   -4.6904   -6.5871    0.0000 C   0  0  0  0  0  0  0  0  0  0  0  0
   -4.3786   -5.1199    0.0000 N   0  0  0  0  0  0  0  0  0  0  0  0
   -2.9520   -4.6564    0.0000 C   0  0  0  0  0  0  0  0  0  0  0  0
   -1.8373   -5.6601    0.0000 O   0  0  0  0  0  0  0  0  0  0  0  0
   -2.6401   -3.1891    0.0000 N   0  0  0  0  0  0  0  0  0  0  0  0
   -1.2135   -2.7256    0.0000 C   0  0  0  0  0  0  0  0  0  0  0  0
   -0.0000   -3.6073    0.0000 C   0  0  0  0  0  0  0  0  0  0  0  0
    1.2135   -2.7256    0.0000 N   0  0  0  0  0  0  0  0  0  0  0  0
    0.7500   -1.2990    0.0000 C   0  0  0  0  0  0  0  0  0  0  0  0
    1.5000    0.0000    0.0000 C   0  0  0  0  0  0  0  0  0  0  0  0
    0.7500    1.2990    0.0000 C   0  0  0  0  0  0  0  0  0  0  0  0
   -0.7500    1.2990    0.0000 C   0  0  0  0  0  0  0  0  0  0  0  0
   -1.5000    2.5981    0.0000 N   0  0  0  0  0  0  0  0  0  0  0  0
   -2.9918    2.7549    0.0000 C   0  0  0  0  0  0  0  0  0  0  0  0
   -3.3037    4.2221    0.0000 C   0  0  0  0  0  0  0  0  0  0  0  0
   -2.0046    4.9721    0.0000 C   0  0  0  0  0  0  0  0  0  0  0  0
   -0.8899    3.9684    0.0000 C   0  0  0  0  0  0  0  0  0  0  0  0
    0.5773    4.2803    0.0000 C   0  0  0  0  0  0  0  0  0  0  0  0
    1.5810    3.1655    0.0000 C   0  0  0  0  0  0  0  0  0  0  0  0
    3.0482    3.4774    0.0000 C   0  0  0  0  0  0  0  0  0  0  0  0
    4.0519    2.3627    0.0000 F   0  0  0  0  0  0  0  0  0  0  0  0
    3.5118    4.9040    0.0000 C   0  0  0  0  0  0  0  0  0  0  0  0
    2.5081    6.0187    0.0000 C   0  0  0  0  0  0  0  0  0  0  0  0
    1.0409    5.7068    0.0000 C   0  0  0  0  0  0  0  0  0  0  0  0
    0.0372    6.8216    0.0000 F   0  0  0  0  0  0  0  0  0  0  0  0
   -1.5000    0.0000    0.0000 N   0  0  0  0  0  0  0  0  0  0  0  0
   -0.7500   -1.2990    0.0000 N   0  0  0  0  0  0  0  0  0  0  0  0
  1  2  1  0
  2  3  1  0
  3  4  2  0
  3  5  1  0
  5  6  1  0
  6  7  2  0
  7  8  1  0
  8  9  2  0
  9 10  1  0
 10 11  2  0
 11 12  1  0
 12 13  1  0
 13 14  1  0
 14 15  1  0
 15 16  1  0
 16 17  1  0
 17 18  1  6
 18 19  2  0
 19 20  1  0
 20 21  1  0
 20 22  2  0
 22 23  1  0
 23 24  2  0
 24 25  1  0
 12 26  2  0
 26 27  1  0
 27  6  1  0
 27  9  1  0
 17 13  1  0
 24 18  1  0
M  END
>  <Compound_ID>  (301) 
CHEMBL4111074

>  <Molecule Name>  (301) 
nan

>  <Molecular Weight>  (301) 
372.38

>  <AlogP>  (301) 
3.1

>  <Smiles>  (301) 
CNC(=O)Nc1cnc2ccc(N3CCC[C@@H]3c3cc(F)ccc3F)nn12

>  <Standard Type>  (301) 
IC50

>  <Standard Relation>  (301) 
'='

>  <Standard Units>  (301) 
nM

>  <Standard Value>  (301) 
65.7

>  <Assay ChEMBL ID>  (301) 
CHEMBL3887826

>  <Assay Description>  (301) 
ELISA Assay: An enzyme-linked immunosorbant assay (ELISA) was used to assess TrkA kinase activity in the presence of inhibitors. Immulon 4HBX 384-well microtiter plates (Thermo part #8755) were coated with a 0.025 mg/mL solution of poly (Glu, Ala, Tyr; 6:3:1; Sigma P3899). Various concentrations of test compound, 2.5 nM TrkA (Invitrogen Corp., histidine-tagged recombinant human TrkA, cytoplasmic domain), and 500 uM ATP were incubated for 25 minutes at ambient temperature in the coated plates while shaking. The assay buffer consisted of 25 mM MOPS pH 7.5, 0.005% (v/v) Triton X-100 and 5 mM MgCl2. The reaction mixture was removed from the plate by washing with PBS containing 0.1% (v/v) Tween 20. The phosphorylated reaction product was detected using 0.2 ug/mL of a phosphotyrosine specific monoclonal antibody (clone PY20) conjugated to horseradish peroxidase in conjunction with the TMB Peroxidase Substrate System (KPL).

>  <BAO Format ID>  (301) 
BAO_0000357

>  <BAO Label>  (301) 
single protein format

>  <Assay Organism>  (301) 
None

>  <Target ChEMBL ID>  (301) 
CHEMBL2815

>  <Target Name>  (301) 
Nerve growth factor receptor Trk-A

>  <Target Organism>  (301) 
Homo sapiens

>  <Target Type>  (301) 
SINGLE PROTEIN

>  <Document ChEMBL ID>  (301) 
CHEMBL3886465

>  <Source Description>  (301) 
BindingDB Database

>  <Document Journal>  (301) 
nan

>  <Document Year>  (301) 
2016.0

>  <Active>  (301) 
1.0

>  <bits>  (301) 
<rdkit.DataStructs.cDataStructs.ExplicitBitVect object at 0x00000159F543C350>

>  <Group>  (301) 
G2

$$$$

     RDKit          2D

 24 27  0  0  0  0  0  0  0  0999 V2000
    6.0000   -5.1962    0.0000 C   0  0  0  0  0  0  0  0  0  0  0  0
    5.2500   -3.8971    0.0000 O   0  0  0  0  0  0  0  0  0  0  0  0
    3.7500   -3.8971    0.0000 C   0  0  0  0  0  0  0  0  0  0  0  0
    3.0000   -5.1962    0.0000 C   0  0  0  0  0  0  0  0  0  0  0  0
    1.5000   -5.1962    0.0000 C   0  0  0  0  0  0  0  0  0  0  0  0
    0.7500   -6.4952    0.0000 N   0  0  0  0  0  0  0  0  0  0  0  0
    0.7500   -3.8971    0.0000 C   0  0  0  0  0  0  0  0  0  0  0  0
    1.5000   -2.5981    0.0000 C   0  0  0  0  0  0  0  0  0  0  0  0
    0.7500   -1.2990    0.0000 C   0  0  0  0  0  0  0  0  0  0  0  0
    1.5000    0.0000    0.0000 C   0  0  0  0  0  0  0  0  0  0  0  0
    0.7500    1.2990    0.0000 N   0  0  0  0  0  0  0  0  0  0  0  0
   -0.7500    1.2990    0.0000 C   0  0  0  0  0  0  0  0  0  0  0  0
   -1.7537    2.4138    0.0000 N   0  0  0  0  0  0  0  0  0  0  0  0
   -3.1240    1.8037    0.0000 C   0  0  0  0  0  0  0  0  0  0  0  0
   -2.9672    0.3119    0.0000 C   0  0  0  0  0  0  0  0  0  0  0  0
   -4.0819   -0.6918    0.0000 C   0  0  0  0  0  0  0  0  0  0  0  0
   -5.5085   -0.2283    0.0000 C   0  0  0  0  0  0  0  0  0  0  0  0
   -6.6232   -1.2320    0.0000 C   0  0  0  0  0  0  0  0  0  0  0  0
   -6.3114   -2.6992    0.0000 N   0  0  0  0  0  0  0  0  0  0  0  0
   -4.8848   -3.1627    0.0000 C   0  0  0  0  0  0  0  0  0  0  0  0
   -3.7701   -2.1590    0.0000 C   0  0  0  0  0  0  0  0  0  0  0  0
   -1.5000    0.0000    0.0000 C   0  0  0  0  0  0  0  0  0  0  0  0
   -0.7500   -1.2990    0.0000 C   0  0  0  0  0  0  0  0  0  0  0  0
    3.0000   -2.5981    0.0000 C   0  0  0  0  0  0  0  0  0  0  0  0
  1  2  1  0
  2  3  1  0
  3  4  2  0
  4  5  1  0
  5  6  1  0
  5  7  2  0
  7  8  1  0
  8  9  1  0
  9 10  2  0
 10 11  1  0
 11 12  2  0
 12 13  1  0
 13 14  1  0
 14 15  2  0
 15 16  1  0
 16 17  2  0
 17 18  1  0
 18 19  2  0
 19 20  1  0
 20 21  2  0
 15 22  1  0
 22 23  2  0
  8 24  2  0
 24  3  1  0
 23  9  1  0
 22 12  1  0
 21 16  1  0
M  END
>  <Compound_ID>  (302) 
CHEMBL2152280

>  <Molecule Name>  (302) 
nan

>  <Molecular Weight>  (302) 
316.36

>  <AlogP>  (302) 
3.88

>  <Smiles>  (302) 
COc1cc(N)cc(-c2cnc3[nH]cc(-c4ccncc4)c3c2)c1

>  <Standard Type>  (302) 
IC50

>  <Standard Relation>  (302) 
'='

>  <Standard Units>  (302) 
nM

>  <Standard Value>  (302) 
18.6

>  <Assay ChEMBL ID>  (302) 
CHEMBL2157053

>  <Assay Description>  (302) 
Inhibition of TRKA assessed as [gamma33P]ATP incorporation into substrate

>  <BAO Format ID>  (302) 
BAO_0000357

>  <BAO Label>  (302) 
single protein format

>  <Assay Organism>  (302) 
None

>  <Target ChEMBL ID>  (302) 
CHEMBL2815

>  <Target Name>  (302) 
Nerve growth factor receptor Trk-A

>  <Target Organism>  (302) 
Homo sapiens

>  <Target Type>  (302) 
SINGLE PROTEIN

>  <Document ChEMBL ID>  (302) 
CHEMBL2150859

>  <Source Description>  (302) 
Scientific Literature

>  <Document Journal>  (302) 
J Med Chem

>  <Document Year>  (302) 
2012.0

>  <Active>  (302) 
1.0

>  <bits>  (302) 
<rdkit.DataStructs.cDataStructs.ExplicitBitVect object at 0x00000159F543F680>

>  <Group>  (302) 
G2

$$$$

     RDKit          2D

 34 38  0  0  0  0  0  0  0  0999 V2000
    5.2500   -3.8971    0.0000 N   0  0  0  0  0  0  0  0  0  0  0  0
    3.7500   -3.8971    0.0000 C   0  0  0  0  0  0  0  0  0  0  0  0
    3.0000   -5.1962    0.0000 C   0  0  0  0  0  0  0  0  0  0  0  0
    1.5000   -5.1962    0.0000 C   0  0  0  0  0  0  0  0  0  0  0  0
    0.7500   -6.4952    0.0000 N   0  0  0  0  0  0  0  0  0  0  0  0
   -0.7500   -6.4952    0.0000 S   0  0  0  0  0  0  0  0  0  0  0  0
   -0.7500   -4.9952    0.0000 O   0  0  0  0  0  0  0  0  0  0  0  0
   -0.7500   -7.9952    0.0000 O   0  0  0  0  0  0  0  0  0  0  0  0
   -2.2500   -6.4952    0.0000 C   0  0  0  0  0  0  0  0  0  0  0  0
   -3.0000   -5.1962    0.0000 C   0  0  0  0  0  0  0  0  0  0  0  0
   -4.5000   -5.1962    0.0000 C   0  0  0  0  0  0  0  0  0  0  0  0
   -5.2500   -6.4952    0.0000 C   0  0  0  0  0  0  0  0  0  0  0  0
   -6.7500   -6.4952    0.0000 F   0  0  0  0  0  0  0  0  0  0  0  0
   -4.5000   -7.7942    0.0000 C   0  0  0  0  0  0  0  0  0  0  0  0
   -3.0000   -7.7942    0.0000 C   0  0  0  0  0  0  0  0  0  0  0  0
   -2.2500   -9.0933    0.0000 F   0  0  0  0  0  0  0  0  0  0  0  0
    0.7500   -3.8971    0.0000 C   0  0  0  0  0  0  0  0  0  0  0  0
    1.5000   -2.5981    0.0000 C   0  0  0  0  0  0  0  0  0  0  0  0
    0.7500   -1.2990    0.0000 C   0  0  0  0  0  0  0  0  0  0  0  0
    1.5000    0.0000    0.0000 C   0  0  0  0  0  0  0  0  0  0  0  0
    0.7500    1.2990    0.0000 N   0  0  0  0  0  0  0  0  0  0  0  0
   -0.7500    1.2990    0.0000 C   0  0  0  0  0  0  0  0  0  0  0  0
   -1.7537    2.4138    0.0000 N   0  0  0  0  0  0  0  0  0  0  0  0
   -3.1240    1.8037    0.0000 C   0  0  0  0  0  0  0  0  0  0  0  0
   -2.9672    0.3119    0.0000 C   0  0  0  0  0  0  0  0  0  0  0  0
   -4.0819   -0.6918    0.0000 C   0  0  0  0  0  0  0  0  0  0  0  0
   -5.5085   -0.2283    0.0000 C   0  0  0  0  0  0  0  0  0  0  0  0
   -6.6232   -1.2320    0.0000 C   0  0  0  0  0  0  0  0  0  0  0  0
   -6.3114   -2.6992    0.0000 N   0  0  0  0  0  0  0  0  0  0  0  0
   -4.8848   -3.1627    0.0000 C   0  0  0  0  0  0  0  0  0  0  0  0
   -3.7701   -2.1590    0.0000 C   0  0  0  0  0  0  0  0  0  0  0  0
   -1.5000    0.0000    0.0000 C   0  0  0  0  0  0  0  0  0  0  0  0
   -0.7500   -1.2990    0.0000 C   0  0  0  0  0  0  0  0  0  0  0  0
    3.0000   -2.5981    0.0000 C   0  0  0  0  0  0  0  0  0  0  0  0
  1  2  1  0
  2  3  2  0
  3  4  1  0
  4  5  1  0
  5  6  1  0
  6  7  2  0
  6  8  2  0
  6  9  1  0
  9 10  2  0
 10 11  1  0
 11 12  2  0
 12 13  1  0
 12 14  1  0
 14 15  2  0
 15 16  1  0
  4 17  2  0
 17 18  1  0
 18 19  1  0
 19 20  2  0
 20 21  1  0
 21 22  2  0
 22 23  1  0
 23 24  1  0
 24 25  2  0
 25 26  1  0
 26 27  2  0
 27 28  1  0
 28 29  2  0
 29 30  1  0
 30 31  2  0
 25 32  1  0
 32 33  2  0
 18 34  2  0
 34  2  1  0
 15  9  1  0
 33 19  1  0
 32 22  1  0
 31 26  1  0
M  END
>  <Compound_ID>  (303) 
CHEMBL2152287

>  <Molecule Name>  (303) 
nan

>  <Molecular Weight>  (303) 
477.5

>  <AlogP>  (303) 
4.95

>  <Smiles>  (303) 
Nc1cc(NS(=O)(=O)c2ccc(F)cc2F)cc(-c2cnc3[nH]cc(-c4ccncc4)c3c2)c1

>  <Standard Type>  (303) 
IC50

>  <Standard Relation>  (303) 
'='

>  <Standard Units>  (303) 
nM

>  <Standard Value>  (303) 
2.97

>  <Assay ChEMBL ID>  (303) 
CHEMBL2157053

>  <Assay Description>  (303) 
Inhibition of TRKA assessed as [gamma33P]ATP incorporation into substrate

>  <BAO Format ID>  (303) 
BAO_0000357

>  <BAO Label>  (303) 
single protein format

>  <Assay Organism>  (303) 
None

>  <Target ChEMBL ID>  (303) 
CHEMBL2815

>  <Target Name>  (303) 
Nerve growth factor receptor Trk-A

>  <Target Organism>  (303) 
Homo sapiens

>  <Target Type>  (303) 
SINGLE PROTEIN

>  <Document ChEMBL ID>  (303) 
CHEMBL2150859

>  <Source Description>  (303) 
Scientific Literature

>  <Document Journal>  (303) 
J Med Chem

>  <Document Year>  (303) 
2012.0

>  <Active>  (303) 
1.0

>  <bits>  (303) 
<rdkit.DataStructs.cDataStructs.ExplicitBitVect object at 0x00000159F543CC10>

>  <Group>  (303) 
G2

$$$$

     RDKit          2D

 36 40  0  0  0  0  0  0  0  0999 V2000
   -0.0000   -5.1073    0.0000 O   0  0  0  0  0  0  0  0  0  0  0  0
   -0.0000   -3.6073    0.0000 C   0  0  0  0  0  0  0  0  0  0  0  0
    1.2135   -2.7256    0.0000 N   0  0  0  0  0  0  0  0  0  0  0  0
    0.7500   -1.2990    0.0000 C   0  0  0  0  0  0  0  0  0  0  0  0
    1.5000    0.0000    0.0000 C   0  0  0  0  0  0  0  0  0  0  0  0
    0.7500    1.2990    0.0000 C   0  0  0  0  0  0  0  0  0  0  0  0
    1.5000    2.5981    0.0000 N   0  0  0  0  0  0  0  0  0  0  0  0
    3.0000    2.5981    0.0000 C   0  0  0  0  0  0  0  0  0  0  0  0
    3.7500    1.2990    0.0000 C   0  0  0  0  0  0  0  0  0  0  0  0
    5.2500    1.2990    0.0000 C   0  0  0  0  0  0  0  0  0  0  0  0
    6.0000    2.5981    0.0000 C   0  0  0  0  0  0  0  0  0  0  0  0
    5.2500    3.8971    0.0000 C   0  0  0  0  0  0  0  0  0  0  0  0
    6.0000    5.1962    0.0000 N   0  0  0  0  0  0  0  0  0  0  0  0
    7.5000    5.1962    0.0000 C   0  0  0  0  0  0  0  0  0  0  0  0
    8.2500    3.8971    0.0000 O   0  0  0  0  0  0  0  0  0  0  0  0
    8.2500    6.4952    0.0000 C   0  0  0  0  0  0  0  0  0  0  0  0
    9.7500    6.4952    0.0000 C   0  0  0  0  0  0  0  0  0  0  0  0
   10.5000    7.7942    0.0000 C   0  0  0  0  0  0  0  0  0  0  0  0
    9.7500    9.0933    0.0000 C   0  0  0  0  0  0  0  0  0  0  0  0
    8.2500    9.0933    0.0000 C   0  0  0  0  0  0  0  0  0  0  0  0
    7.5000   10.3923    0.0000 C   0  0  0  0  0  0  0  0  0  0  0  0
    6.7500   11.6913    0.0000 F   0  0  0  0  0  0  0  0  0  0  0  0
    8.7990   11.1423    0.0000 F   0  0  0  0  0  0  0  0  0  0  0  0
    6.2010    9.6423    0.0000 F   0  0  0  0  0  0  0  0  0  0  0  0
    7.5000    7.7942    0.0000 C   0  0  0  0  0  0  0  0  0  0  0  0
    3.7500    3.8971    0.0000 C   0  0  0  0  0  0  0  0  0  0  0  0
   -0.7500    1.2990    0.0000 C   0  0  0  0  0  0  0  0  0  0  0  0
   -1.5000    0.0000    0.0000 C   0  0  0  0  0  0  0  0  0  0  0  0
   -0.7500   -1.2990    0.0000 C   0  0  0  0  0  0  0  0  0  0  0  0
   -1.2135   -2.7256    0.0000 C   0  0  0  0  0  0  0  0  0  0  0  0
   -2.6401   -3.1891    0.0000 C   0  0  0  0  0  0  0  0  0  0  0  0
   -2.9520   -4.6564    0.0000 C   0  0  0  0  0  0  0  0  0  0  0  0
   -1.9483   -5.7711    0.0000 C   0  0  0  0  0  0  0  0  0  0  0  0
   -2.6983   -7.0701    0.0000 C   0  0  0  0  0  0  0  0  0  0  0  0
   -4.1655   -6.7583    0.0000 C   0  0  0  0  0  0  0  0  0  0  0  0
   -4.3223   -5.2665    0.0000 N   0  0  0  0  0  0  0  0  0  0  0  0
  1  2  2  0
  2  3  1  0
  3  4  1  0
  4  5  2  0
  5  6  1  0
  6  7  1  0
  7  8  1  0
  8  9  2  0
  9 10  1  0
 10 11  2  0
 11 12  1  0
 12 13  1  0
 13 14  1  0
 14 15  2  0
 14 16  1  0
 16 17  2  0
 17 18  1  0
 18 19  2  0
 19 20  1  0
 20 21  1  0
 21 22  1  0
 21 23  1  0
 21 24  1  0
 20 25  2  0
 12 26  2  0
  6 27  2  0
 27 28  1  0
 28 29  2  0
 29 30  1  0
 30 31  2  0
 31 32  1  0
 32 33  2  0
 33 34  1  0
 34 35  2  0
 35 36  1  0
 30  2  1  0
 36 32  1  0
 29  4  1  0
 26  8  1  0
 25 16  1  0
M  END
>  <Compound_ID>  (304) 
CHEMBL2037208

>  <Molecule Name>  (304) 
nan

>  <Molecular Weight>  (304) 
488.47

>  <AlogP>  (304) 
6.52

>  <Smiles>  (304) 
O=C1Nc2cc(Nc3cccc(NC(=O)c4cccc(C(F)(F)F)c4)c3)ccc2/C1=C/c1ccc[nH]1

>  <Standard Type>  (304) 
IC50

>  <Standard Relation>  (304) 
'='

>  <Standard Units>  (304) 
nM

>  <Standard Value>  (304) 
7.0

>  <Assay ChEMBL ID>  (304) 
CHEMBL2038860

>  <Assay Description>  (304) 
Inhibition of TRKA by HTRF assay

>  <BAO Format ID>  (304) 
BAO_0000357

>  <BAO Label>  (304) 
single protein format

>  <Assay Organism>  (304) 
None

>  <Target ChEMBL ID>  (304) 
CHEMBL2815

>  <Target Name>  (304) 
Nerve growth factor receptor Trk-A

>  <Target Organism>  (304) 
Homo sapiens

>  <Target Type>  (304) 
SINGLE PROTEIN

>  <Document ChEMBL ID>  (304) 
CHEMBL2034853

>  <Source Description>  (304) 
Scientific Literature

>  <Document Journal>  (304) 
ACS Med Chem Lett

>  <Document Year>  (304) 
2012.0

>  <Active>  (304) 
1.0

>  <bits>  (304) 
<rdkit.DataStructs.cDataStructs.ExplicitBitVect object at 0x00000159F543F760>

>  <Group>  (304) 
G2

$$$$

     RDKit          2D

 39 46  0  0  0  0  0  0  0  0999 V2000
    1.7199  -15.1004    0.0000 C   0  0  0  0  0  0  0  0  0  0  0  0
    2.3504  -13.7393    0.0000 C   0  0  0  0  0  0  0  0  0  0  0  0
    1.4870  -12.5128    0.0000 S   0  0  0  0  0  0  0  0  0  0  0  0
    2.1175  -11.1517    0.0000 C   0  0  0  0  0  0  0  0  0  0  0  0
    1.2541   -9.9251    0.0000 C   0  0  0  0  0  0  0  0  0  0  0  0
   -0.2399  -10.0596    0.0000 C   0  0  0  0  0  0  0  0  0  0  0  0
   -1.1033   -8.8330    0.0000 C   0  0  0  0  0  0  0  0  0  0  0  0
   -0.4728   -7.4720    0.0000 C   0  0  0  0  0  0  0  0  0  0  0  0
    1.0212   -7.3375    0.0000 C   0  0  0  0  0  0  0  0  0  0  0  0
    1.8846   -8.5641    0.0000 C   0  0  0  0  0  0  0  0  0  0  0  0
    1.3550   -5.8751    0.0000 C   0  0  0  0  0  0  0  0  0  0  0  0
    2.6122   -4.9151    0.0000 C   0  0  0  0  0  0  0  0  0  0  0  0
    2.5449   -3.4166    0.0000 C   0  0  0  0  0  0  0  0  0  0  0  0
    1.2135   -2.7256    0.0000 C   0  0  0  0  0  0  0  0  0  0  0  0
    0.7500   -1.2990    0.0000 C   0  0  0  0  0  0  0  0  0  0  0  0
    1.5000    0.0000    0.0000 C   0  0  0  0  0  0  0  0  0  0  0  0
    0.7500    1.2990    0.0000 C   0  0  0  0  0  0  0  0  0  0  0  0
   -0.7500    1.2990    0.0000 C   0  0  0  0  0  0  0  0  0  0  0  0
   -1.5000    0.0000    0.0000 C   0  0  0  0  0  0  0  0  0  0  0  0
   -0.7500   -1.2990    0.0000 C   0  0  0  0  0  0  0  0  0  0  0  0
   -1.2135   -2.7256    0.0000 N   0  0  0  0  0  0  0  0  0  0  0  0
    0.0000   -3.6073    0.0000 C   0  0  0  0  0  0  0  0  0  0  0  0
    0.0673   -5.1058    0.0000 C   0  0  0  0  0  0  0  0  0  0  0  0
   -1.0623   -6.0927    0.0000 N   0  0  0  0  0  0  0  0  0  0  0  0
   -2.5382   -5.8249    0.0000 C   0  0  0  0  0  0  0  0  0  0  0  0
   -3.4199   -7.0384    0.0000 C   0  0  0  0  0  0  0  0  0  0  0  0
   -3.2490   -4.5040    0.0000 O   0  0  0  0  0  0  0  0  0  0  0  0
   -2.6595   -3.1247    0.0000 C   0  0  0  0  0  0  0  0  0  0  0  0
   -4.0638   -3.6517    0.0000 C   0  0  0  0  0  0  0  0  0  0  0  0
   -3.9965   -5.1502    0.0000 C   0  0  0  0  0  0  0  0  0  0  0  0
   -4.2423   -6.6300    0.0000 O   0  0  0  0  0  0  0  0  0  0  0  0
   -5.4938   -5.0605    0.0000 C   0  0  0  0  0  0  0  0  0  0  0  0
   -6.1648   -3.7190    0.0000 O   0  0  0  0  0  0  0  0  0  0  0  0
   -6.3202   -6.3124    0.0000 O   0  0  0  0  0  0  0  0  0  0  0  0
   -7.8175   -6.2227    0.0000 C   0  0  0  0  0  0  0  0  0  0  0  0
    3.9493   -2.8895    0.0000 C   0  0  0  0  0  0  0  0  0  0  0  0
    4.3483   -1.4436    0.0000 O   0  0  0  0  0  0  0  0  0  0  0  0
    4.8845   -4.0623    0.0000 N   0  0  0  0  0  0  0  0  0  0  0  0
    4.0581   -5.3141    0.0000 C   0  0  0  0  0  0  0  0  0  0  0  0
  1  2  1  0
  2  3  1  0
  3  4  1  0
  4  5  1  0
  5  6  2  0
  6  7  1  0
  7  8  2  0
  8  9  1  0
  9 10  2  0
  9 11  1  0
 11 12  2  0
 12 13  1  0
 13 14  2  0
 14 15  1  0
 15 16  2  0
 16 17  1  0
 17 18  2  0
 18 19  1  0
 19 20  2  0
 20 21  1  0
 21 22  1  0
 22 23  2  0
 23 24  1  0
 24 25  1  0
 25 26  1  1
 25 27  1  0
 27 28  1  0
 28 29  1  6
 29 30  1  0
 30 31  1  6
 30 32  1  0
 32 33  2  0
 32 34  1  0
 34 35  1  0
 13 36  1  0
 36 37  2  0
 36 38  1  0
 38 39  1  0
 10  5  1  0
 23 11  1  0
 30 25  1  0
 24  8  1  0
 39 12  1  0
 22 14  1  0
 20 15  1  0
 28 21  1  0
M  END
>  <Compound_ID>  (305) 
CHEMBL288229

>  <Molecule Name>  (305) 
nan

>  <Molecular Weight>  (305) 
541.63

>  <AlogP>  (305) 
4.91

>  <Smiles>  (305) 
CCSCc1ccc2c(c1)c1c3c(c4c5ccccc5n5c4c1n2[C@@]1(C)O[C@@H]5C[C@]1(O)C(=O)OC)C(=O)NC3

>  <Standard Type>  (305) 
IC50

>  <Standard Relation>  (305) 
'='

>  <Standard Units>  (305) 
nM

>  <Standard Value>  (305) 
61.0

>  <Assay ChEMBL ID>  (305) 
CHEMBL819924

>  <Assay Description>  (305) 
Inhibition of NGF high affinity receptor tyrosine kinase TrkA

>  <BAO Format ID>  (305) 
BAO_0000357

>  <BAO Label>  (305) 
single protein format

>  <Assay Organism>  (305) 
None

>  <Target ChEMBL ID>  (305) 
CHEMBL2815

>  <Target Name>  (305) 
Nerve growth factor receptor Trk-A

>  <Target Organism>  (305) 
Homo sapiens

>  <Target Type>  (305) 
SINGLE PROTEIN

>  <Document ChEMBL ID>  (305) 
CHEMBL1135365

>  <Source Description>  (305) 
Scientific Literature

>  <Document Journal>  (305) 
Bioorg Med Chem Lett

>  <Document Year>  (305) 
2002.0

>  <Active>  (305) 
1.0

>  <bits>  (305) 
<rdkit.DataStructs.cDataStructs.ExplicitBitVect object at 0x00000159F543E110>

>  <Group>  (305) 
G2

$$$$

     RDKit          2D

 35 38  0  0  0  0  0  0  0  0999 V2000
   -2.9520   -4.6564    0.0000 C   0  0  0  0  0  0  0  0  0  0  0  0
   -2.6401   -3.1891    0.0000 C   0  0  0  0  0  0  0  0  0  0  0  0
   -3.7548   -2.1855    0.0000 C   0  0  0  0  0  0  0  0  0  0  0  0
   -1.2135   -2.7256    0.0000 N   0  0  0  0  0  0  0  0  0  0  0  0
   -0.0000   -3.6073    0.0000 C   0  0  0  0  0  0  0  0  0  0  0  0
    1.2135   -2.7256    0.0000 C   0  0  0  0  0  0  0  0  0  0  0  0
    2.6401   -3.1891    0.0000 C   0  0  0  0  0  0  0  0  0  0  0  0
    3.7548   -2.1855    0.0000 O   0  0  0  0  0  0  0  0  0  0  0  0
    2.9520   -4.6564    0.0000 C   0  0  0  0  0  0  0  0  0  0  0  0
    1.8373   -5.6601    0.0000 C   0  0  0  0  0  0  0  0  0  0  0  0
    2.1491   -7.1273    0.0000 C   0  0  0  0  0  0  0  0  0  0  0  0
    3.5757   -7.5908    0.0000 N   0  0  0  0  0  0  0  0  0  0  0  0
    4.6904   -6.5871    0.0000 C   0  0  0  0  0  0  0  0  0  0  0  0
    6.1170   -7.0506    0.0000 N   0  0  0  0  0  0  0  0  0  0  0  0
    6.4289   -8.5179    0.0000 C   0  0  0  0  0  0  0  0  0  0  0  0
    5.3142   -9.5216    0.0000 O   0  0  0  0  0  0  0  0  0  0  0  0
    7.8555   -8.9814    0.0000 C   0  0  0  0  0  0  0  0  0  0  0  0
    8.1673  -10.4486    0.0000 C   0  0  0  0  0  0  0  0  0  0  0  0
    7.0526  -11.4523    0.0000 C   0  0  0  0  0  0  0  0  0  0  0  0
    7.3645  -12.9195    0.0000 C   0  0  0  0  0  0  0  0  0  0  0  0
    8.7911  -13.3831    0.0000 C   0  0  0  0  0  0  0  0  0  0  0  0
    9.9058  -12.3794    0.0000 C   0  0  0  0  0  0  0  0  0  0  0  0
   11.3324  -12.8429    0.0000 O   0  0  0  0  0  0  0  0  0  0  0  0
   11.6442  -14.3101    0.0000 C   0  0  0  0  0  0  0  0  0  0  0  0
   11.9561  -15.7773    0.0000 F   0  0  0  0  0  0  0  0  0  0  0  0
   13.1115  -13.9982    0.0000 F   0  0  0  0  0  0  0  0  0  0  0  0
   10.1770  -14.6220    0.0000 F   0  0  0  0  0  0  0  0  0  0  0  0
    9.5939  -10.9121    0.0000 C   0  0  0  0  0  0  0  0  0  0  0  0
    4.3786   -5.1199    0.0000 C   0  0  0  0  0  0  0  0  0  0  0  0
    0.7500   -1.2990    0.0000 C   0  0  0  0  0  0  0  0  0  0  0  0
    1.5000    0.0000    0.0000 C   0  0  0  0  0  0  0  0  0  0  0  0
    0.7500    1.2990    0.0000 N   0  0  0  0  0  0  0  0  0  0  0  0
   -0.7500    1.2990    0.0000 C   0  0  0  0  0  0  0  0  0  0  0  0
   -1.5000    0.0000    0.0000 C   0  0  0  0  0  0  0  0  0  0  0  0
   -0.7500   -1.2990    0.0000 C   0  0  0  0  0  0  0  0  0  0  0  0
  1  2  1  0
  2  3  1  0
  2  4  1  0
  4  5  1  0
  5  6  2  0
  6  7  1  0
  7  8  2  0
  7  9  1  0
  9 10  2  0
 10 11  1  0
 11 12  2  0
 12 13  1  0
 13 14  1  0
 14 15  1  0
 15 16  2  0
 15 17  1  0
 17 18  1  0
 18 19  2  0
 19 20  1  0
 20 21  2  0
 21 22  1  0
 22 23  1  0
 23 24  1  0
 24 25  1  0
 24 26  1  0
 24 27  1  0
 22 28  2  0
 13 29  2  0
  6 30  1  0
 30 31  2  0
 31 32  1  0
 32 33  2  0
 33 34  1  0
 34 35  2  0
 35  4  1  0
 29  9  1  0
 35 30  1  0
 28 18  1  0
M  END
>  <Compound_ID>  (306) 
CHEMBL3976517

>  <Molecule Name>  (306) 
nan

>  <Molecular Weight>  (306) 
482.46

>  <AlogP>  (306) 
5.32

>  <Smiles>  (306) 
CC(C)n1cc(C(=O)c2ccnc(NC(=O)Cc3cccc(OC(F)(F)F)c3)c2)c2cnccc21

>  <Standard Type>  (306) 
IC50

>  <Standard Relation>  (306) 
'='

>  <Standard Units>  (306) 
nM

>  <Standard Value>  (306) 
7.41

>  <Assay ChEMBL ID>  (306) 
CHEMBL3887111

>  <Assay Description>  (306) 
HTRF Assay: Isolated TRK Enzyme assays use the HTRF KinEASE-TK kit (Cisbio Cat#62TK0PEJ) with recombinant His-tagged cytoplasmic domains of each TRK receptor sourced from Invitrogen (see table below). This activity-assay measures the phosphorylation of tyrosine residues within a substrate from the HTRF kit which has been validated by Cisbio for a variety of tyrosine kinases including the TRK receptors.Assay Details: Invitrogen Amino FAC FAC Assay ReactionTarget Cat# acids enzyme ATP TimeTRKA PV3144 aa 441-4 nM 40 uM 35 min (NTRK1) 796 TRKB PV3616 aa 526-1 nM 1.4 uM 40 min (NTRK2) 838 TRKC PV3617 aa 510- 10 nM 15 uM 30 min (NTRK3) 8250.5 mM stock solutions of test compounds are prepared and serially diluted in 100% DMSO. A standard curve using the compound of Example 135 disclosed in WO2005/116035 of 150 uM is also prepared on each test plate. High percentage effect (HPE) is defined by 150 uM.

>  <BAO Format ID>  (306) 
BAO_0000357

>  <BAO Label>  (306) 
single protein format

>  <Assay Organism>  (306) 
None

>  <Target ChEMBL ID>  (306) 
CHEMBL2815

>  <Target Name>  (306) 
Nerve growth factor receptor Trk-A

>  <Target Organism>  (306) 
Homo sapiens

>  <Target Type>  (306) 
SINGLE PROTEIN

>  <Document ChEMBL ID>  (306) 
CHEMBL3886170

>  <Source Description>  (306) 
BindingDB Database

>  <Document Journal>  (306) 
nan

>  <Document Year>  (306) 
2015.0

>  <Active>  (306) 
1.0

>  <bits>  (306) 
<rdkit.DataStructs.cDataStructs.ExplicitBitVect object at 0x00000159F543EC00>

>  <Group>  (306) 
G2

$$$$

     RDKit          2D

 32 36  0  0  0  0  0  0  0  0999 V2000
    5.9262   -3.3786    0.0000 C   0  0  0  0  0  0  0  0  0  0  0  0
    5.4627   -1.9520    0.0000 C   0  0  0  0  0  0  0  0  0  0  0  0
    6.4664   -0.8373    0.0000 N   0  0  0  0  0  0  0  0  0  0  0  0
    6.0029    0.5893    0.0000 C   0  0  0  0  0  0  0  0  0  0  0  0
    4.5356    0.9012    0.0000 C   0  0  0  0  0  0  0  0  0  0  0  0
    4.0721    2.3277    0.0000 F   0  0  0  0  0  0  0  0  0  0  0  0
    3.5320   -0.2136    0.0000 C   0  0  0  0  0  0  0  0  0  0  0  0
    3.9955   -1.6402    0.0000 C   0  0  0  0  0  0  0  0  0  0  0  0
    2.9918   -2.7549    0.0000 C   0  0  0  0  0  0  0  0  0  0  0  0
    3.3037   -4.2221    0.0000 C   0  0  0  0  0  0  0  0  0  0  0  0
    2.0046   -4.9721    0.0000 C   0  0  0  0  0  0  0  0  0  0  0  0
    0.8899   -3.9684    0.0000 C   0  0  0  0  0  0  0  0  0  0  0  0
    1.5000   -2.5981    0.0000 N   0  0  0  0  0  0  0  0  0  0  0  0
    0.7500   -1.2990    0.0000 C   0  0  0  0  0  0  0  0  0  0  0  0
    1.5000    0.0000    0.0000 C   0  0  0  0  0  0  0  0  0  0  0  0
    0.7500    1.2990    0.0000 C   0  0  0  0  0  0  0  0  0  0  0  0
   -0.7500    1.2990    0.0000 N   0  0  0  0  0  0  0  0  0  0  0  0
   -1.7537    2.4138    0.0000 N   0  0  0  0  0  0  0  0  0  0  0  0
   -3.1240    1.8037    0.0000 C   0  0  0  0  0  0  0  0  0  0  0  0
   -2.9672    0.3119    0.0000 C   0  0  0  0  0  0  0  0  0  0  0  0
   -4.0819   -0.6918    0.0000 C   0  0  0  0  0  0  0  0  0  0  0  0
   -3.7701   -2.1590    0.0000 O   0  0  0  0  0  0  0  0  0  0  0  0
   -5.5085   -0.2283    0.0000 N   0  0  0  0  0  0  0  0  0  0  0  0
   -6.6232   -1.2320    0.0000 C   0  0  0  0  0  0  0  0  0  0  0  0
   -8.0498   -0.7685    0.0000 C   0  0  0  0  0  0  0  0  0  0  0  0
   -9.1645   -1.7722    0.0000 C   0  0  0  0  0  0  0  0  0  0  0  0
   -8.8527   -3.2394    0.0000 C   0  0  0  0  0  0  0  0  0  0  0  0
   -9.9674   -4.2431    0.0000 O   0  0  0  0  0  0  0  0  0  0  0  0
   -7.4261   -3.7029    0.0000 C   0  0  0  0  0  0  0  0  0  0  0  0
   -6.3114   -2.6992    0.0000 C   0  0  0  0  0  0  0  0  0  0  0  0
   -1.5000    0.0000    0.0000 C   0  0  0  0  0  0  0  0  0  0  0  0
   -0.7500   -1.2990    0.0000 N   0  0  0  0  0  0  0  0  0  0  0  0
  1  2  1  0
  2  3  2  0
  3  4  1  0
  4  5  2  0
  5  6  1  0
  5  7  1  0
  7  8  2  0
  8  9  1  0
  9 10  1  0
 10 11  1  0
 11 12  1  0
 12 13  1  0
 13 14  1  0
 14 15  1  0
 15 16  2  0
 16 17  1  0
 17 18  1  0
 18 19  2  0
 19 20  1  0
 20 21  1  0
 21 22  2  0
 21 23  1  0
 23 24  1  0
 24 25  1  0
 25 26  1  0
 26 27  1  0
 27 28  1  0
 27 29  1  0
 29 30  1  0
 20 31  2  0
 31 32  1  0
  8  2  1  0
 13  9  1  0
 32 14  2  0
 31 17  1  0
 30 24  1  0
M  END
>  <Compound_ID>  (307) 
CHEMBL3955007

>  <Molecule Name>  (307) 
nan

>  <Molecular Weight>  (307) 
438.51

>  <AlogP>  (307) 
2.95

>  <Smiles>  (307) 
Cc1ncc(F)cc1C1CCCN1c1ccn2ncc(C(=O)NC3CCC(O)CC3)c2n1

>  <Standard Type>  (307) 
IC50

>  <Standard Relation>  (307) 
'='

>  <Standard Units>  (307) 
nM

>  <Standard Value>  (307) 
4.7

>  <Assay ChEMBL ID>  (307) 
CHEMBL3887070

>  <Assay Description>  (307) 
ELISA Assay: An enzyme-linked immunosorbant assay (ELISA) was used to assess TrkA kinase activity in the presence of inhibitors. Immulon 4HBX 384-well microtiter plates (Thermo part #8755) were coated with a 0.025 mg/mL solution of poly (Glu, Ala, Tyr; 6:3:1; Sigma P3899). Various concentrations of test compound, 2.5 nM TrkA (Invitrogen Corp., histidine-tagged recombinant human TrkA, cytoplasmic domain), and 500 uM ATP were incubated for 25 minutes at ambient temperature in the coated plates while shaking The assay buffer consisted of 25 mM MOPS pH 7.5, 0.005% (v/v) Triton X-100 and 5 mM MgCl2. The reaction mixture was removed from the plate by washing with PBS containing 0.1% (v/v) Tween 20. The phosphorylated reaction product was detected using 0.2 ug/mL of a phosphotyrosine specific monoclonal antibody (clone PY20) conjugated to horseradish peroxidase in conjunction with the TMB Peroxidase Substrate System (KPL).

>  <BAO Format ID>  (307) 
BAO_0000357

>  <BAO Label>  (307) 
single protein format

>  <Assay Organism>  (307) 
None

>  <Target ChEMBL ID>  (307) 
CHEMBL2815

>  <Target Name>  (307) 
Nerve growth factor receptor Trk-A

>  <Target Organism>  (307) 
Homo sapiens

>  <Target Type>  (307) 
SINGLE PROTEIN

>  <Document ChEMBL ID>  (307) 
CHEMBL3638907

>  <Source Description>  (307) 
BindingDB Database

>  <Document Journal>  (307) 
nan

>  <Document Year>  (307) 
2014.0

>  <Active>  (307) 
1.0

>  <bits>  (307) 
<rdkit.DataStructs.cDataStructs.ExplicitBitVect object at 0x00000159F543C2E0>

>  <Group>  (307) 
G2

$$$$

     RDKit          2D

 43 48  0  0  0  0  0  0  0  0999 V2000
   -1.8139  -10.0996    0.0000 C   0  0  0  0  0  0  0  0  0  0  0  0
   -2.4240   -8.7293    0.0000 C   0  0  0  0  0  0  0  0  0  0  0  0
   -3.0341   -7.3590    0.0000 C   0  0  0  0  0  0  0  0  0  0  0  0
   -3.7943   -9.3394    0.0000 C   0  0  0  0  0  0  0  0  0  0  0  0
   -1.0537   -8.1192    0.0000 C   0  0  0  0  0  0  0  0  0  0  0  0
   -0.7418   -6.6520    0.0000 C   0  0  0  0  0  0  0  0  0  0  0  0
    0.7500   -6.4952    0.0000 C   0  0  0  0  0  0  0  0  0  0  0  0
    1.5000   -5.1962    0.0000 N   0  0  0  0  0  0  0  0  0  0  0  0
    0.7500   -3.8971    0.0000 C   0  0  0  0  0  0  0  0  0  0  0  0
   -0.7500   -3.8971    0.0000 O   0  0  0  0  0  0  0  0  0  0  0  0
    1.5000   -2.5981    0.0000 N   0  0  0  0  0  0  0  0  0  0  0  0
    0.7500   -1.2990    0.0000 C   0  0  0  0  0  0  0  0  0  0  0  0
    1.5000    0.0000    0.0000 C   0  0  0  0  0  0  0  0  0  0  0  0
    0.7500    1.2990    0.0000 N   0  0  0  0  0  0  0  0  0  0  0  0
   -0.7500    1.2990    0.0000 C   0  0  0  0  0  0  0  0  0  0  0  0
   -1.5000    2.5981    0.0000 O   0  0  0  0  0  0  0  0  0  0  0  0
   -0.7500    3.8971    0.0000 C   0  0  0  0  0  0  0  0  0  0  0  0
    0.7500    3.8971    0.0000 C   0  0  0  0  0  0  0  0  0  0  0  0
    1.5000    5.1962    0.0000 C   0  0  0  0  0  0  0  0  0  0  0  0
    0.7500    6.4952    0.0000 C   0  0  0  0  0  0  0  0  0  0  0  0
    1.5000    7.7942    0.0000 C   0  0  0  0  0  0  0  0  0  0  0  0
    0.8899    9.1645    0.0000 C   0  0  0  0  0  0  0  0  0  0  0  0
    2.0046   10.1682    0.0000 N   0  0  0  0  0  0  0  0  0  0  0  0
    3.3037    9.4182    0.0000 C   0  0  0  0  0  0  0  0  0  0  0  0
    4.6740   10.0283    0.0000 N   0  0  0  0  0  0  0  0  0  0  0  0
    4.9858   11.4956    0.0000 C   0  0  0  0  0  0  0  0  0  0  0  0
    6.4776   11.6524    0.0000 C   0  0  0  0  0  0  0  0  0  0  0  0
    7.0877   10.2820    0.0000 C   0  0  0  0  0  0  0  0  0  0  0  0
    5.9730    9.2783    0.0000 C   0  0  0  0  0  0  0  0  0  0  0  0
    6.1298    7.7866    0.0000 O   0  0  0  0  0  0  0  0  0  0  0  0
    2.9918    7.9510    0.0000 S   0  0  0  0  0  0  0  0  0  0  0  0
   -0.7500    6.4952    0.0000 C   0  0  0  0  0  0  0  0  0  0  0  0
   -1.5000    5.1962    0.0000 C   0  0  0  0  0  0  0  0  0  0  0  0
   -1.5000    0.0000    0.0000 N   0  0  0  0  0  0  0  0  0  0  0  0
   -0.7500   -1.2990    0.0000 C   0  0  0  0  0  0  0  0  0  0  0  0
    1.3601   -7.8655    0.0000 N   0  0  0  0  0  0  0  0  0  0  0  0
    2.8273   -8.1774    0.0000 C   0  0  0  0  0  0  0  0  0  0  0  0
    3.8310   -7.0627    0.0000 C   0  0  0  0  0  0  0  0  0  0  0  0
    5.2982   -7.3745    0.0000 C   0  0  0  0  0  0  0  0  0  0  0  0
    5.7618   -8.8011    0.0000 O   0  0  0  0  0  0  0  0  0  0  0  0
    4.7581   -9.9158    0.0000 C   0  0  0  0  0  0  0  0  0  0  0  0
    3.2909   -9.6040    0.0000 C   0  0  0  0  0  0  0  0  0  0  0  0
    0.2454   -8.8692    0.0000 N   0  0  0  0  0  0  0  0  0  0  0  0
  1  2  1  0
  2  3  1  0
  2  4  1  0
  2  5  1  0
  5  6  1  0
  6  7  2  0
  7  8  1  0
  8  9  1  0
  9 10  2  0
  9 11  1  0
 11 12  1  0
 12 13  2  0
 13 14  1  0
 14 15  2  0
 15 16  1  0
 16 17  1  0
 17 18  2  0
 18 19  1  0
 19 20  2  0
 20 21  1  0
 21 22  2  0
 22 23  1  0
 23 24  2  0
 24 25  1  0
 25 26  1  0
 26 27  1  0
 27 28  1  0
 28 29  1  0
 29 30  2  0
 24 31  1  0
 20 32  1  0
 32 33  2  0
 15 34  1  0
 34 35  2  0
  7 36  1  0
 36 37  1  0
 37 38  1  0
 38 39  1  0
 39 40  1  0
 40 41  1  0
 41 42  1  0
 36 43  1  0
 43  5  2  0
 35 12  1  0
 42 37  1  0
 33 17  1  0
 31 21  1  0
 29 25  1  0
M  END
>  <Compound_ID>  (308) 
CHEMBL3958124

>  <Molecule Name>  (308) 
nan

>  <Molecular Weight>  (308) 
602.72

>  <AlogP>  (308) 
6.01

>  <Smiles>  (308) 
CC(C)(C)c1cc(NC(=O)Nc2cnc(Oc3ccc(-c4cnc(N5CCCC5=O)s4)cc3)nc2)n(C2CCOCC2)n1

>  <Standard Type>  (308) 
IC50

>  <Standard Relation>  (308) 
'='

>  <Standard Units>  (308) 
nM

>  <Standard Value>  (308) 
70.0

>  <Assay ChEMBL ID>  (308) 
CHEMBL3887906

>  <Assay Description>  (308) 
LanthaScreen Kinase Assay: TrkA-inhibiting activity was measured according to the following method using LanthaScreen kinase assay reagents (Invitrogen; Fluorescein-Poly GT, LanthaScreen Tb-PY20 and TR-FRET Dilution Buffer), TrkA (Invitrogen), ATP (Sigma-Aldrich), a kinase reaction buffer (50 mM HEPES buffer (Sigma-Aldrich) (pH 7.5) containing 0.01% Brij35 (Sigma-Aldrich), 10 mM MgCl2 (Sigma-Aldrich) and 1 mM EGTA (Sigma-Aldrich)) and 0.5 M EDTA (pH 8.0) (Invitrogen).The present compound was dissolved in dimethylsulfoxide (hereinafter abbreviated as DMSO) to prepare a 10 mM solution. The test compound at 10 mM was distributed into a 96-well plate and serially diluted with DMSO with the geometrical ratio of 3. The serial dilutions (DMSO solutions) were diluted with the kinase reaction buffer to 20-fold to prepare solutions of the present compound with 5-times concentrations (DMSO concentration: 5%). TrkA was diluted with the kinase reaction buffer to prepare a solution at 38.5 ng/mL (enzyme solution). Adenosine

>  <BAO Format ID>  (308) 
BAO_0000357

>  <BAO Label>  (308) 
single protein format

>  <Assay Organism>  (308) 
None

>  <Target ChEMBL ID>  (308) 
CHEMBL2815

>  <Target Name>  (308) 
Nerve growth factor receptor Trk-A

>  <Target Organism>  (308) 
Homo sapiens

>  <Target Type>  (308) 
SINGLE PROTEIN

>  <Document ChEMBL ID>  (308) 
CHEMBL3886498

>  <Source Description>  (308) 
BindingDB Database

>  <Document Journal>  (308) 
nan

>  <Document Year>  (308) 
2016.0

>  <Active>  (308) 
1.0

>  <bits>  (308) 
<rdkit.DataStructs.cDataStructs.ExplicitBitVect object at 0x00000159F543E960>

>  <Group>  (308) 
G2

$$$$

     RDKit          2D

 35 38  0  0  0  0  0  0  0  0999 V2000
   -2.1766   -4.6157    0.0000 C   0  0  0  0  0  0  0  0  0  0  0  0
   -2.6401   -3.1891    0.0000 C   0  0  0  0  0  0  0  0  0  0  0  0
   -3.1036   -1.7626    0.0000 C   0  0  0  0  0  0  0  0  0  0  0  0
   -4.0667   -3.6527    0.0000 C   0  0  0  0  0  0  0  0  0  0  0  0
   -1.2135   -2.7256    0.0000 N   0  0  0  0  0  0  0  0  0  0  0  0
   -0.0000   -3.6073    0.0000 C   0  0  0  0  0  0  0  0  0  0  0  0
    1.2135   -2.7256    0.0000 C   0  0  0  0  0  0  0  0  0  0  0  0
    2.6401   -3.1891    0.0000 C   0  0  0  0  0  0  0  0  0  0  0  0
    3.7548   -2.1855    0.0000 O   0  0  0  0  0  0  0  0  0  0  0  0
    2.9520   -4.6564    0.0000 C   0  0  0  0  0  0  0  0  0  0  0  0
    1.8373   -5.6601    0.0000 C   0  0  0  0  0  0  0  0  0  0  0  0
    2.1491   -7.1273    0.0000 N   0  0  0  0  0  0  0  0  0  0  0  0
    3.5757   -7.5908    0.0000 C   0  0  0  0  0  0  0  0  0  0  0  0
    4.6904   -6.5871    0.0000 C   0  0  0  0  0  0  0  0  0  0  0  0
    6.1170   -7.0506    0.0000 N   0  0  0  0  0  0  0  0  0  0  0  0
    6.4289   -8.5179    0.0000 C   0  0  0  0  0  0  0  0  0  0  0  0
    5.3142   -9.5216    0.0000 O   0  0  0  0  0  0  0  0  0  0  0  0
    7.8555   -8.9814    0.0000 C   0  0  0  0  0  0  0  0  0  0  0  0
    8.1673  -10.4486    0.0000 C   0  0  0  0  0  0  0  0  0  0  0  0
    7.0526  -11.4523    0.0000 C   0  0  0  0  0  0  0  0  0  0  0  0
    7.3645  -12.9195    0.0000 C   0  0  0  0  0  0  0  0  0  0  0  0
    8.7911  -13.3831    0.0000 C   0  0  0  0  0  0  0  0  0  0  0  0
    9.9058  -12.3794    0.0000 C   0  0  0  0  0  0  0  0  0  0  0  0
   11.3324  -12.8429    0.0000 S   0  0  0  0  0  0  0  0  0  0  0  0
   12.7590  -13.3064    0.0000 C   0  0  0  0  0  0  0  0  0  0  0  0
   11.7959  -11.4163    0.0000 O   0  0  0  0  0  0  0  0  0  0  0  0
   10.8688  -14.2695    0.0000 O   0  0  0  0  0  0  0  0  0  0  0  0
    9.5939  -10.9121    0.0000 C   0  0  0  0  0  0  0  0  0  0  0  0
    4.3786   -5.1199    0.0000 C   0  0  0  0  0  0  0  0  0  0  0  0
    0.7500   -1.2990    0.0000 C   0  0  0  0  0  0  0  0  0  0  0  0
    1.5000    0.0000    0.0000 C   0  0  0  0  0  0  0  0  0  0  0  0
    0.7500    1.2990    0.0000 N   0  0  0  0  0  0  0  0  0  0  0  0
   -0.7500    1.2990    0.0000 C   0  0  0  0  0  0  0  0  0  0  0  0
   -1.5000    0.0000    0.0000 N   0  0  0  0  0  0  0  0  0  0  0  0
   -0.7500   -1.2990    0.0000 C   0  0  0  0  0  0  0  0  0  0  0  0
  1  2  1  0
  2  3  1  0
  2  4  1  0
  2  5  1  0
  5  6  1  0
  6  7  2  0
  7  8  1  0
  8  9  2  0
  8 10  1  0
 10 11  2  0
 11 12  1  0
 12 13  2  0
 13 14  1  0
 14 15  1  0
 15 16  1  0
 16 17  2  0
 16 18  1  0
 18 19  1  0
 19 20  2  0
 20 21  1  0
 21 22  2  0
 22 23  1  0
 23 24  1  0
 24 25  1  0
 24 26  2  0
 24 27  2  0
 23 28  2  0
 14 29  2  0
  7 30  1  0
 30 31  2  0
 31 32  1  0
 32 33  2  0
 33 34  1  0
 34 35  2  0
 35  5  1  0
 29 10  1  0
 35 30  1  0
 28 19  1  0
M  END
>  <Compound_ID>  (309) 
CHEMBL3661593

>  <Molecule Name>  (309) 
nan

>  <Molecular Weight>  (309) 
491.57

>  <AlogP>  (309) 
3.4

>  <Smiles>  (309) 
CC(C)(C)n1cc(C(=O)c2cncc(NC(=O)Cc3cccc(S(C)(=O)=O)c3)c2)c2cncnc21

>  <Standard Type>  (309) 
IC50

>  <Standard Relation>  (309) 
'='

>  <Standard Units>  (309) 
nM

>  <Standard Value>  (309) 
10.1

>  <Assay ChEMBL ID>  (309) 
CHEMBL3887033

>  <Assay Description>  (309) 
Enzyme Assay: Isolated TRK Enzyme assays use the HTRF KinEASE-TK kit (Cisbio Cat# 62TK0PEJ) with recombinant His-tagged cytoplasmic domains of each TRK receptor sourced from Invitrogen (see table below). This activity-assay measures the phosphorylation of tyrosine residues within a substrate from the HTRF kit which has been validated by Cisbio for a variety of tyrosine kinases including the TRK receptors. Assay details: Target:TRKA; Invitrogen Cat# PV3144; Amino acids:aa 441-796; FAC enzyme:4nM; FAC ATP:40uM; Assay Reaction Time:35min.

>  <BAO Format ID>  (309) 
BAO_0000357

>  <BAO Label>  (309) 
single protein format

>  <Assay Organism>  (309) 
None

>  <Target ChEMBL ID>  (309) 
CHEMBL2815

>  <Target Name>  (309) 
Nerve growth factor receptor Trk-A

>  <Target Organism>  (309) 
Homo sapiens

>  <Target Type>  (309) 
SINGLE PROTEIN

>  <Document ChEMBL ID>  (309) 
CHEMBL3639348

>  <Source Description>  (309) 
BindingDB Database

>  <Document Journal>  (309) 
nan

>  <Document Year>  (309) 
2014.0

>  <Active>  (309) 
1.0

>  <bits>  (309) 
<rdkit.DataStructs.cDataStructs.ExplicitBitVect object at 0x00000159F543D460>

>  <Group>  (309) 
G2

$$$$

     RDKit          2D

 32 35  0  0  0  0  0  0  0  0999 V2000
  -14.0921   -2.9925    0.0000 C   0  0  0  0  0  0  0  0  0  0  0  0
  -13.4820   -4.3628    0.0000 C   0  0  0  0  0  0  0  0  0  0  0  0
  -14.3637   -5.5763    0.0000 C   0  0  0  0  0  0  0  0  0  0  0  0
  -11.9903   -4.5196    0.0000 C   0  0  0  0  0  0  0  0  0  0  0  0
  -11.2403   -5.8186    0.0000 C   0  0  0  0  0  0  0  0  0  0  0  0
   -9.7730   -5.5068    0.0000 N   0  0  0  0  0  0  0  0  0  0  0  0
   -8.6583   -6.5105    0.0000 C   0  0  0  0  0  0  0  0  0  0  0  0
   -7.2317   -6.0469    0.0000 C   0  0  0  0  0  0  0  0  0  0  0  0
   -6.9199   -4.5797    0.0000 O   0  0  0  0  0  0  0  0  0  0  0  0
   -6.1170   -7.0506    0.0000 N   0  0  0  0  0  0  0  0  0  0  0  0
   -4.6904   -6.5871    0.0000 C   0  0  0  0  0  0  0  0  0  0  0  0
   -3.5757   -7.5908    0.0000 C   0  0  0  0  0  0  0  0  0  0  0  0
   -2.1491   -7.1273    0.0000 N   0  0  0  0  0  0  0  0  0  0  0  0
   -1.8373   -5.6601    0.0000 C   0  0  0  0  0  0  0  0  0  0  0  0
   -2.9520   -4.6564    0.0000 C   0  0  0  0  0  0  0  0  0  0  0  0
   -2.6401   -3.1891    0.0000 C   0  0  0  0  0  0  0  0  0  0  0  0
   -3.7548   -2.1855    0.0000 O   0  0  0  0  0  0  0  0  0  0  0  0
   -1.2135   -2.7256    0.0000 C   0  0  0  0  0  0  0  0  0  0  0  0
   -0.0000   -3.6073    0.0000 C   0  0  0  0  0  0  0  0  0  0  0  0
    1.2135   -2.7256    0.0000 N   0  0  0  0  0  0  0  0  0  0  0  0
    2.6401   -3.1891    0.0000 C   0  0  0  0  0  0  0  0  0  0  0  0
    2.9520   -4.6564    0.0000 C   0  0  0  0  0  0  0  0  0  0  0  0
    3.7548   -2.1855    0.0000 C   0  0  0  0  0  0  0  0  0  0  0  0
    0.7500   -1.2990    0.0000 C   0  0  0  0  0  0  0  0  0  0  0  0
    1.5000    0.0000    0.0000 N   0  0  0  0  0  0  0  0  0  0  0  0
    0.7500    1.2990    0.0000 C   0  0  0  0  0  0  0  0  0  0  0  0
   -0.7500    1.2990    0.0000 N   0  0  0  0  0  0  0  0  0  0  0  0
   -1.5000    0.0000    0.0000 C   0  0  0  0  0  0  0  0  0  0  0  0
   -0.7500   -1.2990    0.0000 C   0  0  0  0  0  0  0  0  0  0  0  0
   -4.3786   -5.1199    0.0000 C   0  0  0  0  0  0  0  0  0  0  0  0
   -9.6162   -4.0150    0.0000 N   0  0  0  0  0  0  0  0  0  0  0  0
  -10.9866   -3.4049    0.0000 N   0  0  0  0  0  0  0  0  0  0  0  0
  1  2  1  0
  2  3  1  0
  2  4  1  0
  4  5  2  0
  5  6  1  0
  6  7  1  0
  7  8  1  0
  8  9  2  0
  8 10  1  0
 10 11  1  0
 11 12  2  0
 12 13  1  0
 13 14  2  0
 14 15  1  0
 15 16  1  0
 16 17  2  0
 16 18  1  0
 18 19  2  0
 19 20  1  0
 20 21  1  0
 21 22  1  0
 21 23  1  0
 20 24  1  0
 24 25  2  0
 25 26  1  0
 26 27  2  0
 27 28  1  0
 28 29  2  0
 15 30  2  0
  6 31  1  0
 31 32  2  0
 32  4  1  0
 30 11  1  0
 29 18  1  0
 29 24  1  0
M  END
>  <Compound_ID>  (310) 
CHEMBL3661499

>  <Molecule Name>  (310) 
nan

>  <Molecular Weight>  (310) 
432.49

>  <AlogP>  (310) 
2.99

>  <Smiles>  (310) 
CC(C)c1cn(CC(=O)Nc2cncc(C(=O)c3cn(C(C)C)c4ncncc34)c2)nn1

>  <Standard Type>  (310) 
IC50

>  <Standard Relation>  (310) 
'='

>  <Standard Units>  (310) 
nM

>  <Standard Value>  (310) 
25.6

>  <Assay ChEMBL ID>  (310) 
CHEMBL3887033

>  <Assay Description>  (310) 
Enzyme Assay: Isolated TRK Enzyme assays use the HTRF KinEASE-TK kit (Cisbio Cat# 62TK0PEJ) with recombinant His-tagged cytoplasmic domains of each TRK receptor sourced from Invitrogen (see table below). This activity-assay measures the phosphorylation of tyrosine residues within a substrate from the HTRF kit which has been validated by Cisbio for a variety of tyrosine kinases including the TRK receptors. Assay details: Target:TRKA; Invitrogen Cat# PV3144; Amino acids:aa 441-796; FAC enzyme:4nM; FAC ATP:40uM; Assay Reaction Time:35min.

>  <BAO Format ID>  (310) 
BAO_0000357

>  <BAO Label>  (310) 
single protein format

>  <Assay Organism>  (310) 
None

>  <Target ChEMBL ID>  (310) 
CHEMBL2815

>  <Target Name>  (310) 
Nerve growth factor receptor Trk-A

>  <Target Organism>  (310) 
Homo sapiens

>  <Target Type>  (310) 
SINGLE PROTEIN

>  <Document ChEMBL ID>  (310) 
CHEMBL3639348

>  <Source Description>  (310) 
BindingDB Database

>  <Document Journal>  (310) 
nan

>  <Document Year>  (310) 
2014.0

>  <Active>  (310) 
1.0

>  <bits>  (310) 
<rdkit.DataStructs.cDataStructs.ExplicitBitVect object at 0x00000159F543DC40>

>  <Group>  (310) 
G2

$$$$

     RDKit          2D

 34 37  0  0  0  0  0  0  0  0999 V2000
   -8.8374   -1.1051    0.0000 C   0  0  0  0  0  0  0  0  0  0  0  0
  -10.2640   -1.5686    0.0000 O   0  0  0  0  0  0  0  0  0  0  0  0
  -10.5759   -3.0359    0.0000 C   0  0  0  0  0  0  0  0  0  0  0  0
   -9.4612   -4.0396    0.0000 C   0  0  0  0  0  0  0  0  0  0  0  0
   -9.7730   -5.5068    0.0000 C   0  0  0  0  0  0  0  0  0  0  0  0
   -8.6583   -6.5105    0.0000 C   0  0  0  0  0  0  0  0  0  0  0  0
   -7.2317   -6.0469    0.0000 C   0  0  0  0  0  0  0  0  0  0  0  0
   -6.9199   -4.5797    0.0000 O   0  0  0  0  0  0  0  0  0  0  0  0
   -6.1170   -7.0506    0.0000 N   0  0  0  0  0  0  0  0  0  0  0  0
   -4.6904   -6.5871    0.0000 C   0  0  0  0  0  0  0  0  0  0  0  0
   -3.5757   -7.5908    0.0000 C   0  0  0  0  0  0  0  0  0  0  0  0
   -2.1491   -7.1273    0.0000 N   0  0  0  0  0  0  0  0  0  0  0  0
   -1.8373   -5.6601    0.0000 C   0  0  0  0  0  0  0  0  0  0  0  0
   -2.9520   -4.6564    0.0000 C   0  0  0  0  0  0  0  0  0  0  0  0
   -2.6401   -3.1891    0.0000 C   0  0  0  0  0  0  0  0  0  0  0  0
   -3.7548   -2.1855    0.0000 O   0  0  0  0  0  0  0  0  0  0  0  0
   -1.2135   -2.7256    0.0000 C   0  0  0  0  0  0  0  0  0  0  0  0
   -0.0000   -3.6073    0.0000 C   0  0  0  0  0  0  0  0  0  0  0  0
    1.2135   -2.7256    0.0000 N   0  0  0  0  0  0  0  0  0  0  0  0
    2.6401   -3.1891    0.0000 C   0  0  0  0  0  0  0  0  0  0  0  0
    2.9520   -4.6564    0.0000 C   0  0  0  0  0  0  0  0  0  0  0  0
    3.7548   -2.1855    0.0000 C   0  0  0  0  0  0  0  0  0  0  0  0
    0.7500   -1.2990    0.0000 C   0  0  0  0  0  0  0  0  0  0  0  0
    1.5000    0.0000    0.0000 N   0  0  0  0  0  0  0  0  0  0  0  0
    0.7500    1.2990    0.0000 C   0  0  0  0  0  0  0  0  0  0  0  0
   -0.7500    1.2990    0.0000 N   0  0  0  0  0  0  0  0  0  0  0  0
   -1.5000    0.0000    0.0000 C   0  0  0  0  0  0  0  0  0  0  0  0
   -0.7500   -1.2990    0.0000 C   0  0  0  0  0  0  0  0  0  0  0  0
   -4.3786   -5.1199    0.0000 C   0  0  0  0  0  0  0  0  0  0  0  0
  -11.1996   -5.9703    0.0000 C   0  0  0  0  0  0  0  0  0  0  0  0
  -12.3143   -4.9666    0.0000 C   0  0  0  0  0  0  0  0  0  0  0  0
  -12.0025   -3.4994    0.0000 C   0  0  0  0  0  0  0  0  0  0  0  0
  -13.1172   -2.4957    0.0000 C   0  0  0  0  0  0  0  0  0  0  0  0
  -14.2319   -1.4920    0.0000 N   0  0  0  0  0  0  0  0  0  0  0  0
  1  2  1  0
  2  3  1  0
  3  4  2  0
  4  5  1  0
  5  6  1  0
  6  7  1  0
  7  8  2  0
  7  9  1  0
  9 10  1  0
 10 11  2  0
 11 12  1  0
 12 13  2  0
 13 14  1  0
 14 15  1  0
 15 16  2  0
 15 17  1  0
 17 18  2  0
 18 19  1  0
 19 20  1  0
 20 21  1  0
 20 22  1  0
 19 23  1  0
 23 24  2  0
 24 25  1  0
 25 26  2  0
 26 27  1  0
 27 28  2  0
 14 29  2  0
  5 30  2  0
 30 31  1  0
 31 32  2  0
 32 33  1  0
 33 34  3  0
 32  3  1  0
 29 10  1  0
 28 17  1  0
 28 23  1  0
M  END
>  <Compound_ID>  (311) 
CHEMBL3661472

>  <Molecule Name>  (311) 
nan

>  <Molecular Weight>  (311) 
454.49

>  <AlogP>  (311) 
3.7

>  <Smiles>  (311) 
COc1cc(CC(=O)Nc2cncc(C(=O)c3cn(C(C)C)c4ncncc34)c2)ccc1C#N

>  <Standard Type>  (311) 
IC50

>  <Standard Relation>  (311) 
'='

>  <Standard Units>  (311) 
nM

>  <Standard Value>  (311) 
64.3

>  <Assay ChEMBL ID>  (311) 
CHEMBL3887033

>  <Assay Description>  (311) 
Enzyme Assay: Isolated TRK Enzyme assays use the HTRF KinEASE-TK kit (Cisbio Cat# 62TK0PEJ) with recombinant His-tagged cytoplasmic domains of each TRK receptor sourced from Invitrogen (see table below). This activity-assay measures the phosphorylation of tyrosine residues within a substrate from the HTRF kit which has been validated by Cisbio for a variety of tyrosine kinases including the TRK receptors. Assay details: Target:TRKA; Invitrogen Cat# PV3144; Amino acids:aa 441-796; FAC enzyme:4nM; FAC ATP:40uM; Assay Reaction Time:35min.

>  <BAO Format ID>  (311) 
BAO_0000357

>  <BAO Label>  (311) 
single protein format

>  <Assay Organism>  (311) 
None

>  <Target ChEMBL ID>  (311) 
CHEMBL2815

>  <Target Name>  (311) 
Nerve growth factor receptor Trk-A

>  <Target Organism>  (311) 
Homo sapiens

>  <Target Type>  (311) 
SINGLE PROTEIN

>  <Document ChEMBL ID>  (311) 
CHEMBL3639348

>  <Source Description>  (311) 
BindingDB Database

>  <Document Journal>  (311) 
nan

>  <Document Year>  (311) 
2014.0

>  <Active>  (311) 
1.0

>  <bits>  (311) 
<rdkit.DataStructs.cDataStructs.ExplicitBitVect object at 0x00000159F543EC70>

>  <Group>  (311) 
G2

$$$$

     RDKit          2D

 24 27  0  0  0  0  0  0  0  0999 V2000
    6.0000   -5.1962    0.0000 C   0  0  0  0  0  0  0  0  0  0  0  0
    5.2500   -3.8971    0.0000 N   0  0  0  0  0  0  0  0  0  0  0  0
    6.0000   -2.5981    0.0000 C   0  0  0  0  0  0  0  0  0  0  0  0
    3.7500   -3.8971    0.0000 C   0  0  0  0  0  0  0  0  0  0  0  0
    3.0000   -5.1962    0.0000 C   0  0  0  0  0  0  0  0  0  0  0  0
    1.5000   -5.1962    0.0000 C   0  0  0  0  0  0  0  0  0  0  0  0
    0.7500   -3.8971    0.0000 C   0  0  0  0  0  0  0  0  0  0  0  0
    1.5000   -2.5981    0.0000 C   0  0  0  0  0  0  0  0  0  0  0  0
    0.7500   -1.2990    0.0000 C   0  0  0  0  0  0  0  0  0  0  0  0
    1.5000    0.0000    0.0000 C   0  0  0  0  0  0  0  0  0  0  0  0
    0.7500    1.2990    0.0000 N   0  0  0  0  0  0  0  0  0  0  0  0
   -0.7500    1.2990    0.0000 C   0  0  0  0  0  0  0  0  0  0  0  0
   -1.7537    2.4138    0.0000 N   0  0  0  0  0  0  0  0  0  0  0  0
   -3.1240    1.8037    0.0000 C   0  0  0  0  0  0  0  0  0  0  0  0
   -2.9672    0.3119    0.0000 C   0  0  0  0  0  0  0  0  0  0  0  0
   -4.0819   -0.6918    0.0000 C   0  0  0  0  0  0  0  0  0  0  0  0
   -5.5085   -0.2283    0.0000 C   0  0  0  0  0  0  0  0  0  0  0  0
   -6.6232   -1.2320    0.0000 C   0  0  0  0  0  0  0  0  0  0  0  0
   -6.3114   -2.6992    0.0000 N   0  0  0  0  0  0  0  0  0  0  0  0
   -4.8848   -3.1627    0.0000 C   0  0  0  0  0  0  0  0  0  0  0  0
   -3.7701   -2.1590    0.0000 C   0  0  0  0  0  0  0  0  0  0  0  0
   -1.5000    0.0000    0.0000 C   0  0  0  0  0  0  0  0  0  0  0  0
   -0.7500   -1.2990    0.0000 C   0  0  0  0  0  0  0  0  0  0  0  0
    3.0000   -2.5981    0.0000 C   0  0  0  0  0  0  0  0  0  0  0  0
  1  2  1  0
  2  3  1  0
  2  4  1  0
  4  5  2  0
  5  6  1  0
  6  7  2  0
  7  8  1  0
  8  9  1  0
  9 10  2  0
 10 11  1  0
 11 12  2  0
 12 13  1  0
 13 14  1  0
 14 15  2  0
 15 16  1  0
 16 17  2  0
 17 18  1  0
 18 19  2  0
 19 20  1  0
 20 21  2  0
 15 22  1  0
 22 23  2  0
  8 24  2  0
 24  4  1  0
 23  9  1  0
 22 12  1  0
 21 16  1  0
M  END
>  <Compound_ID>  (312) 
CHEMBL2152271

>  <Molecule Name>  (312) 
nan

>  <Molecular Weight>  (312) 
314.39

>  <AlogP>  (312) 
4.36

>  <Smiles>  (312) 
CN(C)c1cccc(-c2cnc3[nH]cc(-c4ccncc4)c3c2)c1

>  <Standard Type>  (312) 
IC50

>  <Standard Relation>  (312) 
'='

>  <Standard Units>  (312) 
nM

>  <Standard Value>  (312) 
26.47

>  <Assay ChEMBL ID>  (312) 
CHEMBL2157053

>  <Assay Description>  (312) 
Inhibition of TRKA assessed as [gamma33P]ATP incorporation into substrate

>  <BAO Format ID>  (312) 
BAO_0000357

>  <BAO Label>  (312) 
single protein format

>  <Assay Organism>  (312) 
None

>  <Target ChEMBL ID>  (312) 
CHEMBL2815

>  <Target Name>  (312) 
Nerve growth factor receptor Trk-A

>  <Target Organism>  (312) 
Homo sapiens

>  <Target Type>  (312) 
SINGLE PROTEIN

>  <Document ChEMBL ID>  (312) 
CHEMBL2150859

>  <Source Description>  (312) 
Scientific Literature

>  <Document Journal>  (312) 
J Med Chem

>  <Document Year>  (312) 
2012.0

>  <Active>  (312) 
1.0

>  <bits>  (312) 
<rdkit.DataStructs.cDataStructs.ExplicitBitVect object at 0x00000159F543C430>

>  <Group>  (312) 
G2

$$$$

     RDKit          2D

 23 26  0  0  0  0  0  0  0  0999 V2000
    0.7500   -6.4952    0.0000 N   0  0  0  0  0  0  0  0  0  0  0  0
    1.5000   -5.1962    0.0000 C   0  0  0  0  0  0  0  0  0  0  0  0
    0.7500   -3.8971    0.0000 C   0  0  0  0  0  0  0  0  0  0  0  0
    1.5000   -2.5981    0.0000 C   0  0  0  0  0  0  0  0  0  0  0  0
    0.7500   -1.2990    0.0000 C   0  0  0  0  0  0  0  0  0  0  0  0
    1.5000    0.0000    0.0000 C   0  0  0  0  0  0  0  0  0  0  0  0
    0.7500    1.2990    0.0000 N   0  0  0  0  0  0  0  0  0  0  0  0
   -0.7500    1.2990    0.0000 C   0  0  0  0  0  0  0  0  0  0  0  0
   -1.7537    2.4138    0.0000 N   0  0  0  0  0  0  0  0  0  0  0  0
   -3.1240    1.8037    0.0000 C   0  0  0  0  0  0  0  0  0  0  0  0
   -2.9672    0.3119    0.0000 C   0  0  0  0  0  0  0  0  0  0  0  0
   -4.0819   -0.6918    0.0000 C   0  0  0  0  0  0  0  0  0  0  0  0
   -5.5085   -0.2283    0.0000 C   0  0  0  0  0  0  0  0  0  0  0  0
   -6.6232   -1.2320    0.0000 C   0  0  0  0  0  0  0  0  0  0  0  0
   -6.3114   -2.6992    0.0000 N   0  0  0  0  0  0  0  0  0  0  0  0
   -4.8848   -3.1627    0.0000 C   0  0  0  0  0  0  0  0  0  0  0  0
   -3.7701   -2.1590    0.0000 C   0  0  0  0  0  0  0  0  0  0  0  0
   -1.5000    0.0000    0.0000 C   0  0  0  0  0  0  0  0  0  0  0  0
   -0.7500   -1.2990    0.0000 C   0  0  0  0  0  0  0  0  0  0  0  0
    3.0000   -2.5981    0.0000 C   0  0  0  0  0  0  0  0  0  0  0  0
    3.7500   -3.8971    0.0000 C   0  0  0  0  0  0  0  0  0  0  0  0
    3.0000   -5.1962    0.0000 C   0  0  0  0  0  0  0  0  0  0  0  0
    3.7500   -6.4952    0.0000 Cl  0  0  0  0  0  0  0  0  0  0  0  0
  1  2  1  0
  2  3  2  0
  3  4  1  0
  4  5  1  0
  5  6  2  0
  6  7  1  0
  7  8  2  0
  8  9  1  0
  9 10  1  0
 10 11  2  0
 11 12  1  0
 12 13  2  0
 13 14  1  0
 14 15  2  0
 15 16  1  0
 16 17  2  0
 11 18  1  0
 18 19  2  0
  4 20  2  0
 20 21  1  0
 21 22  2  0
 22 23  1  0
 22  2  1  0
 19  5  1  0
 18  8  1  0
 17 12  1  0
M  END
>  <Compound_ID>  (313) 
CHEMBL2152276

>  <Molecule Name>  (313) 
nan

>  <Molecular Weight>  (313) 
320.78

>  <AlogP>  (313) 
4.53

>  <Smiles>  (313) 
Nc1cc(-c2cnc3[nH]cc(-c4ccncc4)c3c2)ccc1Cl

>  <Standard Type>  (313) 
IC50

>  <Standard Relation>  (313) 
'='

>  <Standard Units>  (313) 
nM

>  <Standard Value>  (313) 
53.7

>  <Assay ChEMBL ID>  (313) 
CHEMBL2157053

>  <Assay Description>  (313) 
Inhibition of TRKA assessed as [gamma33P]ATP incorporation into substrate

>  <BAO Format ID>  (313) 
BAO_0000357

>  <BAO Label>  (313) 
single protein format

>  <Assay Organism>  (313) 
None

>  <Target ChEMBL ID>  (313) 
CHEMBL2815

>  <Target Name>  (313) 
Nerve growth factor receptor Trk-A

>  <Target Organism>  (313) 
Homo sapiens

>  <Target Type>  (313) 
SINGLE PROTEIN

>  <Document ChEMBL ID>  (313) 
CHEMBL2150859

>  <Source Description>  (313) 
Scientific Literature

>  <Document Journal>  (313) 
J Med Chem

>  <Document Year>  (313) 
2012.0

>  <Active>  (313) 
1.0

>  <bits>  (313) 
<rdkit.DataStructs.cDataStructs.ExplicitBitVect object at 0x00000159F543FA70>

>  <Group>  (313) 
G2

$$$$

     RDKit          2D

 23 26  0  0  0  0  0  0  0  0999 V2000
    3.7500   -6.4952    0.0000 C   0  0  0  0  0  0  0  0  0  0  0  0
    3.0000   -5.1962    0.0000 C   0  0  0  0  0  0  0  0  0  0  0  0
    1.5000   -5.1962    0.0000 C   0  0  0  0  0  0  0  0  0  0  0  0
    0.7500   -3.8971    0.0000 C   0  0  0  0  0  0  0  0  0  0  0  0
    1.5000   -2.5981    0.0000 C   0  0  0  0  0  0  0  0  0  0  0  0
    0.7500   -1.2990    0.0000 C   0  0  0  0  0  0  0  0  0  0  0  0
    1.5000    0.0000    0.0000 C   0  0  0  0  0  0  0  0  0  0  0  0
    0.7500    1.2990    0.0000 N   0  0  0  0  0  0  0  0  0  0  0  0
   -0.7500    1.2990    0.0000 C   0  0  0  0  0  0  0  0  0  0  0  0
   -1.7537    2.4138    0.0000 N   0  0  0  0  0  0  0  0  0  0  0  0
   -3.1240    1.8037    0.0000 C   0  0  0  0  0  0  0  0  0  0  0  0
   -2.9672    0.3119    0.0000 C   0  0  0  0  0  0  0  0  0  0  0  0
   -4.0819   -0.6918    0.0000 C   0  0  0  0  0  0  0  0  0  0  0  0
   -5.5085   -0.2283    0.0000 C   0  0  0  0  0  0  0  0  0  0  0  0
   -6.6232   -1.2320    0.0000 C   0  0  0  0  0  0  0  0  0  0  0  0
   -6.3114   -2.6992    0.0000 N   0  0  0  0  0  0  0  0  0  0  0  0
   -4.8848   -3.1627    0.0000 C   0  0  0  0  0  0  0  0  0  0  0  0
   -3.7701   -2.1590    0.0000 C   0  0  0  0  0  0  0  0  0  0  0  0
   -1.5000    0.0000    0.0000 C   0  0  0  0  0  0  0  0  0  0  0  0
   -0.7500   -1.2990    0.0000 C   0  0  0  0  0  0  0  0  0  0  0  0
    3.0000   -2.5981    0.0000 C   0  0  0  0  0  0  0  0  0  0  0  0
    3.7500   -3.8971    0.0000 C   0  0  0  0  0  0  0  0  0  0  0  0
    5.2500   -3.8971    0.0000 N   0  0  0  0  0  0  0  0  0  0  0  0
  1  2  1  0
  2  3  2  0
  3  4  1  0
  4  5  2  0
  5  6  1  0
  6  7  2  0
  7  8  1  0
  8  9  2  0
  9 10  1  0
 10 11  1  0
 11 12  2  0
 12 13  1  0
 13 14  2  0
 14 15  1  0
 15 16  2  0
 16 17  1  0
 17 18  2  0
 12 19  1  0
 19 20  2  0
  5 21  1  0
 21 22  2  0
 22 23  1  0
 22  2  1  0
 20  6  1  0
 19  9  1  0
 18 13  1  0
M  END
>  <Compound_ID>  (314) 
CHEMBL2152277

>  <Molecule Name>  (314) 
nan

>  <Molecular Weight>  (314) 
300.37

>  <AlogP>  (314) 
4.18

>  <Smiles>  (314) 
Cc1ccc(-c2cnc3[nH]cc(-c4ccncc4)c3c2)cc1N

>  <Standard Type>  (314) 
IC50

>  <Standard Relation>  (314) 
'='

>  <Standard Units>  (314) 
nM

>  <Standard Value>  (314) 
22.2

>  <Assay ChEMBL ID>  (314) 
CHEMBL2157053

>  <Assay Description>  (314) 
Inhibition of TRKA assessed as [gamma33P]ATP incorporation into substrate

>  <BAO Format ID>  (314) 
BAO_0000357

>  <BAO Label>  (314) 
single protein format

>  <Assay Organism>  (314) 
None

>  <Target ChEMBL ID>  (314) 
CHEMBL2815

>  <Target Name>  (314) 
Nerve growth factor receptor Trk-A

>  <Target Organism>  (314) 
Homo sapiens

>  <Target Type>  (314) 
SINGLE PROTEIN

>  <Document ChEMBL ID>  (314) 
CHEMBL2150859

>  <Source Description>  (314) 
Scientific Literature

>  <Document Journal>  (314) 
J Med Chem

>  <Document Year>  (314) 
2012.0

>  <Active>  (314) 
1.0

>  <bits>  (314) 
<rdkit.DataStructs.cDataStructs.ExplicitBitVect object at 0x00000159F543FD80>

>  <Group>  (314) 
G2

$$$$

     RDKit          2D

 28 31  0  0  0  0  0  0  0  0999 V2000
    3.7500  -11.6913    0.0000 C   0  0  0  0  0  0  0  0  0  0  0  0
    3.0000  -10.3923    0.0000 N   0  0  0  0  0  0  0  0  0  0  0  0
    1.5000  -10.3923    0.0000 C   0  0  0  0  0  0  0  0  0  0  0  0
    3.7500   -9.0933    0.0000 C   0  0  0  0  0  0  0  0  0  0  0  0
    3.0000   -7.7942    0.0000 C   0  0  0  0  0  0  0  0  0  0  0  0
    3.7500   -6.4952    0.0000 O   0  0  0  0  0  0  0  0  0  0  0  0
    3.0000   -5.1962    0.0000 C   0  0  0  0  0  0  0  0  0  0  0  0
    1.5000   -5.1962    0.0000 C   0  0  0  0  0  0  0  0  0  0  0  0
    0.7500   -3.8971    0.0000 C   0  0  0  0  0  0  0  0  0  0  0  0
    1.5000   -2.5981    0.0000 C   0  0  0  0  0  0  0  0  0  0  0  0
    0.7500   -1.2990    0.0000 C   0  0  0  0  0  0  0  0  0  0  0  0
    1.5000    0.0000    0.0000 C   0  0  0  0  0  0  0  0  0  0  0  0
    0.7500    1.2990    0.0000 N   0  0  0  0  0  0  0  0  0  0  0  0
   -0.7500    1.2990    0.0000 C   0  0  0  0  0  0  0  0  0  0  0  0
   -1.7537    2.4138    0.0000 N   0  0  0  0  0  0  0  0  0  0  0  0
   -3.1240    1.8037    0.0000 C   0  0  0  0  0  0  0  0  0  0  0  0
   -2.9672    0.3119    0.0000 C   0  0  0  0  0  0  0  0  0  0  0  0
   -4.0819   -0.6918    0.0000 C   0  0  0  0  0  0  0  0  0  0  0  0
   -5.5085   -0.2283    0.0000 C   0  0  0  0  0  0  0  0  0  0  0  0
   -6.6232   -1.2320    0.0000 C   0  0  0  0  0  0  0  0  0  0  0  0
   -6.3114   -2.6992    0.0000 N   0  0  0  0  0  0  0  0  0  0  0  0
   -4.8848   -3.1627    0.0000 C   0  0  0  0  0  0  0  0  0  0  0  0
   -3.7701   -2.1590    0.0000 C   0  0  0  0  0  0  0  0  0  0  0  0
   -1.5000    0.0000    0.0000 C   0  0  0  0  0  0  0  0  0  0  0  0
   -0.7500   -1.2990    0.0000 C   0  0  0  0  0  0  0  0  0  0  0  0
    3.0000   -2.5981    0.0000 C   0  0  0  0  0  0  0  0  0  0  0  0
    3.7500   -3.8971    0.0000 C   0  0  0  0  0  0  0  0  0  0  0  0
    5.2500   -3.8971    0.0000 N   0  0  0  0  0  0  0  0  0  0  0  0
  1  2  1  0
  2  3  1  0
  2  4  1  0
  4  5  1  0
  5  6  1  0
  6  7  1  0
  7  8  2  0
  8  9  1  0
  9 10  2  0
 10 11  1  0
 11 12  2  0
 12 13  1  0
 13 14  2  0
 14 15  1  0
 15 16  1  0
 16 17  2  0
 17 18  1  0
 18 19  2  0
 19 20  1  0
 20 21  2  0
 21 22  1  0
 22 23  2  0
 17 24  1  0
 24 25  2  0
 10 26  1  0
 26 27  2  0
 27 28  1  0
 27  7  1  0
 25 11  1  0
 24 14  1  0
 23 18  1  0
M  END
>  <Compound_ID>  (315) 
CHEMBL2152279

>  <Molecule Name>  (315) 
nan

>  <Molecular Weight>  (315) 
373.46

>  <AlogP>  (315) 
3.81

>  <Smiles>  (315) 
CN(C)CCOc1ccc(-c2cnc3[nH]cc(-c4ccncc4)c3c2)cc1N

>  <Standard Type>  (315) 
IC50

>  <Standard Relation>  (315) 
'='

>  <Standard Units>  (315) 
nM

>  <Standard Value>  (315) 
47.0

>  <Assay ChEMBL ID>  (315) 
CHEMBL2157053

>  <Assay Description>  (315) 
Inhibition of TRKA assessed as [gamma33P]ATP incorporation into substrate

>  <BAO Format ID>  (315) 
BAO_0000357

>  <BAO Label>  (315) 
single protein format

>  <Assay Organism>  (315) 
None

>  <Target ChEMBL ID>  (315) 
CHEMBL2815

>  <Target Name>  (315) 
Nerve growth factor receptor Trk-A

>  <Target Organism>  (315) 
Homo sapiens

>  <Target Type>  (315) 
SINGLE PROTEIN

>  <Document ChEMBL ID>  (315) 
CHEMBL2150859

>  <Source Description>  (315) 
Scientific Literature

>  <Document Journal>  (315) 
J Med Chem

>  <Document Year>  (315) 
2012.0

>  <Active>  (315) 
1.0

>  <bits>  (315) 
<rdkit.DataStructs.cDataStructs.ExplicitBitVect object at 0x00000159F543EB20>

>  <Group>  (315) 
G2

$$$$

     RDKit          2D

 30 34  0  0  0  0  0  0  0  0999 V2000
    5.2500   -3.8971    0.0000 N   0  0  0  0  0  0  0  0  0  0  0  0
    3.7500   -3.8971    0.0000 C   0  0  0  0  0  0  0  0  0  0  0  0
    3.0000   -5.1962    0.0000 C   0  0  0  0  0  0  0  0  0  0  0  0
    1.5000   -5.1962    0.0000 C   0  0  0  0  0  0  0  0  0  0  0  0
    0.7500   -6.4952    0.0000 C   0  0  0  0  0  0  0  0  0  0  0  0
    1.5000   -7.7942    0.0000 O   0  0  0  0  0  0  0  0  0  0  0  0
   -0.7500   -6.4952    0.0000 N   0  0  0  0  0  0  0  0  0  0  0  0
   -1.5000   -5.1962    0.0000 C   0  0  0  0  0  0  0  0  0  0  0  0
   -3.0000   -5.1962    0.0000 C   0  0  0  0  0  0  0  0  0  0  0  0
   -3.7500   -6.4952    0.0000 O   0  0  0  0  0  0  0  0  0  0  0  0
   -3.0000   -7.7942    0.0000 C   0  0  0  0  0  0  0  0  0  0  0  0
   -1.5000   -7.7942    0.0000 C   0  0  0  0  0  0  0  0  0  0  0  0
    0.7500   -3.8971    0.0000 C   0  0  0  0  0  0  0  0  0  0  0  0
    1.5000   -2.5981    0.0000 C   0  0  0  0  0  0  0  0  0  0  0  0
    0.7500   -1.2990    0.0000 C   0  0  0  0  0  0  0  0  0  0  0  0
    1.5000    0.0000    0.0000 C   0  0  0  0  0  0  0  0  0  0  0  0
    0.7500    1.2990    0.0000 N   0  0  0  0  0  0  0  0  0  0  0  0
   -0.7500    1.2990    0.0000 C   0  0  0  0  0  0  0  0  0  0  0  0
   -1.7537    2.4138    0.0000 N   0  0  0  0  0  0  0  0  0  0  0  0
   -3.1240    1.8037    0.0000 C   0  0  0  0  0  0  0  0  0  0  0  0
   -2.9672    0.3119    0.0000 C   0  0  0  0  0  0  0  0  0  0  0  0
   -4.0819   -0.6918    0.0000 C   0  0  0  0  0  0  0  0  0  0  0  0
   -5.5085   -0.2283    0.0000 C   0  0  0  0  0  0  0  0  0  0  0  0
   -6.6232   -1.2320    0.0000 C   0  0  0  0  0  0  0  0  0  0  0  0
   -6.3114   -2.6992    0.0000 N   0  0  0  0  0  0  0  0  0  0  0  0
   -4.8848   -3.1627    0.0000 C   0  0  0  0  0  0  0  0  0  0  0  0
   -3.7701   -2.1590    0.0000 C   0  0  0  0  0  0  0  0  0  0  0  0
   -1.5000    0.0000    0.0000 C   0  0  0  0  0  0  0  0  0  0  0  0
   -0.7500   -1.2990    0.0000 C   0  0  0  0  0  0  0  0  0  0  0  0
    3.0000   -2.5981    0.0000 C   0  0  0  0  0  0  0  0  0  0  0  0
  1  2  1  0
  2  3  2  0
  3  4  1  0
  4  5  1  0
  5  6  2  0
  5  7  1  0
  7  8  1  0
  8  9  1  0
  9 10  1  0
 10 11  1  0
 11 12  1  0
  4 13  2  0
 13 14  1  0
 14 15  1  0
 15 16  2  0
 16 17  1  0
 17 18  2  0
 18 19  1  0
 19 20  1  0
 20 21  2  0
 21 22  1  0
 22 23  2  0
 23 24  1  0
 24 25  2  0
 25 26  1  0
 26 27  2  0
 21 28  1  0
 28 29  2  0
 14 30  2  0
 30  2  1  0
 12  7  1  0
 29 15  1  0
 28 18  1  0
 27 22  1  0
M  END
>  <Compound_ID>  (316) 
CHEMBL2152281

>  <Molecule Name>  (316) 
nan

>  <Molecular Weight>  (316) 
399.45

>  <AlogP>  (316) 
3.35

>  <Smiles>  (316) 
Nc1cc(C(=O)N2CCOCC2)cc(-c2cnc3[nH]cc(-c4ccncc4)c3c2)c1

>  <Standard Type>  (316) 
IC50

>  <Standard Relation>  (316) 
'='

>  <Standard Units>  (316) 
nM

>  <Standard Value>  (316) 
64.7

>  <Assay ChEMBL ID>  (316) 
CHEMBL2157053

>  <Assay Description>  (316) 
Inhibition of TRKA assessed as [gamma33P]ATP incorporation into substrate

>  <BAO Format ID>  (316) 
BAO_0000357

>  <BAO Label>  (316) 
single protein format

>  <Assay Organism>  (316) 
None

>  <Target ChEMBL ID>  (316) 
CHEMBL2815

>  <Target Name>  (316) 
Nerve growth factor receptor Trk-A

>  <Target Organism>  (316) 
Homo sapiens

>  <Target Type>  (316) 
SINGLE PROTEIN

>  <Document ChEMBL ID>  (316) 
CHEMBL2150859

>  <Source Description>  (316) 
Scientific Literature

>  <Document Journal>  (316) 
J Med Chem

>  <Document Year>  (316) 
2012.0

>  <Active>  (316) 
1.0

>  <bits>  (316) 
<rdkit.DataStructs.cDataStructs.ExplicitBitVect object at 0x00000159F543D380>

>  <Group>  (316) 
G2

$$$$

     RDKit          2D

 31 35  0  0  0  0  0  0  0  0999 V2000
   -7.0770   -7.1119    0.0000 C   0  0  0  0  0  0  0  0  0  0  0  0
   -6.3961   -5.7754    0.0000 C   0  0  0  0  0  0  0  0  0  0  0  0
   -7.7326   -5.0944    0.0000 O   0  0  0  0  0  0  0  0  0  0  0  0
   -5.7151   -4.4389    0.0000 C   0  0  0  0  0  0  0  0  0  0  0  0
   -4.3786   -5.1199    0.0000 N   0  0  0  0  0  0  0  0  0  0  0  0
   -2.9520   -4.6564    0.0000 C   0  0  0  0  0  0  0  0  0  0  0  0
   -1.8373   -5.6601    0.0000 O   0  0  0  0  0  0  0  0  0  0  0  0
   -2.6401   -3.1891    0.0000 N   0  0  0  0  0  0  0  0  0  0  0  0
   -1.2135   -2.7256    0.0000 C   0  0  0  0  0  0  0  0  0  0  0  0
   -0.0000   -3.6073    0.0000 C   0  0  0  0  0  0  0  0  0  0  0  0
    1.2135   -2.7256    0.0000 N   0  0  0  0  0  0  0  0  0  0  0  0
    0.7500   -1.2990    0.0000 N   0  0  0  0  0  0  0  0  0  0  0  0
    1.5000    0.0000    0.0000 C   0  0  0  0  0  0  0  0  0  0  0  0
    0.7500    1.2990    0.0000 C   0  0  0  0  0  0  0  0  0  0  0  0
   -0.7500    1.2990    0.0000 C   0  0  0  0  0  0  0  0  0  0  0  0
   -1.5000    2.5981    0.0000 N   0  0  0  0  0  0  0  0  0  0  0  0
   -2.9918    2.7549    0.0000 C   0  0  0  0  0  0  0  0  0  0  0  0
   -3.3037    4.2221    0.0000 C   0  0  0  0  0  0  0  0  0  0  0  0
   -2.0046    4.9721    0.0000 C   0  0  0  0  0  0  0  0  0  0  0  0
   -0.8899    3.9684    0.0000 C   0  0  0  0  0  0  0  0  0  0  0  0
    0.5773    4.2803    0.0000 C   0  0  0  0  0  0  0  0  0  0  0  0
    1.5810    3.1655    0.0000 C   0  0  0  0  0  0  0  0  0  0  0  0
    3.0482    3.4774    0.0000 C   0  0  0  0  0  0  0  0  0  0  0  0
    4.0519    2.3627    0.0000 F   0  0  0  0  0  0  0  0  0  0  0  0
    3.5118    4.9040    0.0000 C   0  0  0  0  0  0  0  0  0  0  0  0
    2.5081    6.0187    0.0000 C   0  0  0  0  0  0  0  0  0  0  0  0
    1.0409    5.7068    0.0000 C   0  0  0  0  0  0  0  0  0  0  0  0
    0.0372    6.8216    0.0000 F   0  0  0  0  0  0  0  0  0  0  0  0
   -1.5000    0.0000    0.0000 N   0  0  0  0  0  0  0  0  0  0  0  0
   -0.7500   -1.2990    0.0000 C   0  0  0  0  0  0  0  0  0  0  0  0
   -5.0595   -6.4564    0.0000 C   0  0  0  0  0  0  0  0  0  0  0  0
  1  2  1  0
  2  3  1  0
  2  4  1  0
  4  5  1  0
  5  6  1  0
  6  7  2  0
  6  8  1  0
  8  9  1  0
  9 10  1  0
 10 11  2  0
 11 12  1  0
 12 13  1  0
 13 14  2  0
 14 15  1  0
 15 16  1  0
 16 17  1  0
 17 18  1  0
 18 19  1  0
 19 20  1  0
 20 21  1  6
 21 22  2  0
 22 23  1  0
 23 24  1  0
 23 25  2  0
 25 26  1  0
 26 27  2  0
 27 28  1  0
 15 29  2  0
 29 30  1  0
  5 31  1  0
 31  2  1  0
 30  9  2  0
 30 12  1  0
 20 16  1  0
 27 21  1  0
M  END
>  <Compound_ID>  (317) 
CHEMBL4113310

>  <Molecule Name>  (317) 
nan

>  <Molecular Weight>  (317) 
428.44

>  <AlogP>  (317) 
2.95

>  <Smiles>  (317) 
CC1(O)CN(C(=O)Nc2cnn3ccc(N4CCC[C@@H]4c4cc(F)ccc4F)nc23)C1

>  <Standard Type>  (317) 
IC50

>  <Standard Relation>  (317) 
'='

>  <Standard Units>  (317) 
nM

>  <Standard Value>  (317) 
19.7

>  <Assay ChEMBL ID>  (317) 
CHEMBL3887076

>  <Assay Description>  (317) 
ELISA Assay: An enzyme-linked immunosorbant assay (ELISA) was used to assess TrkA kinase activity in the presence of inhibitors. Immulon 4HBX 384-well microtiter plates (Thermo part #8755) were coated with a 0.025 mg/mL solution of poly (Glu, Ala, Tyr; 6:3:1; Sigma P3899). Various concentrations of test compound, 2.5 nM TrkA (Invitrogen Corp., histidine-tagged recombinant human TrkA, cytoplasmic domain), and 500 uM ATP were incubated for 25 minutes at ambient temperature in the coated plates while shaking. The assay buffer consisted of 25 mM MOPS pH 7.5, 0.005% (v/v) Triton X-100 and 5 mM MgCl2. The reaction mixture was removed from the plate by washing with PBS containing 0.1% (v/v) Tween 20. The phosphorylated reaction product was detected using 0.2 ug/mL of a phosphotyrosine specific monoclonal antibody (clone PY20) conjugated to horseradish peroxidase in conjunction with the TMB Peroxidase Substrate System (KPL).

>  <BAO Format ID>  (317) 
BAO_0000357

>  <BAO Label>  (317) 
single protein format

>  <Assay Organism>  (317) 
None

>  <Target ChEMBL ID>  (317) 
CHEMBL2815

>  <Target Name>  (317) 
Nerve growth factor receptor Trk-A

>  <Target Organism>  (317) 
Homo sapiens

>  <Target Type>  (317) 
SINGLE PROTEIN

>  <Document ChEMBL ID>  (317) 
CHEMBL3886151

>  <Source Description>  (317) 
BindingDB Database

>  <Document Journal>  (317) 
nan

>  <Document Year>  (317) 
2014.0

>  <Active>  (317) 
1.0

>  <bits>  (317) 
<rdkit.DataStructs.cDataStructs.ExplicitBitVect object at 0x00000159F543D690>

>  <Group>  (317) 
G2

$$$$

     RDKit          2D

 32 37  0  0  0  0  0  0  0  0999 V2000
    0.7500  -11.6913    0.0000 C   0  0  0  0  0  0  0  0  0  0  0  0
    1.5000  -10.3923    0.0000 N   0  0  0  0  0  0  0  0  0  0  0  0
    0.7500   -9.0933    0.0000 C   0  0  0  0  0  0  0  0  0  0  0  0
    1.5000   -7.7942    0.0000 C   0  0  0  0  0  0  0  0  0  0  0  0
    3.0000   -7.7942    0.0000 N   0  0  0  0  0  0  0  0  0  0  0  0
    3.7500   -6.4952    0.0000 C   0  0  0  0  0  0  0  0  0  0  0  0
    3.0000   -5.1962    0.0000 C   0  0  0  0  0  0  0  0  0  0  0  0
    3.7500   -3.8971    0.0000 C   0  0  0  0  0  0  0  0  0  0  0  0
    3.0000   -2.5981    0.0000 C   0  0  0  0  0  0  0  0  0  0  0  0
    1.5000   -2.5981    0.0000 C   0  0  0  0  0  0  0  0  0  0  0  0
    0.7500   -1.2990    0.0000 C   0  0  0  0  0  0  0  0  0  0  0  0
    1.5000    0.0000    0.0000 C   0  0  0  0  0  0  0  0  0  0  0  0
    0.7500    1.2990    0.0000 N   0  0  0  0  0  0  0  0  0  0  0  0
   -0.7500    1.2990    0.0000 C   0  0  0  0  0  0  0  0  0  0  0  0
   -1.7537    2.4138    0.0000 N   0  0  0  0  0  0  0  0  0  0  0  0
   -3.1240    1.8037    0.0000 C   0  0  0  0  0  0  0  0  0  0  0  0
   -2.9672    0.3119    0.0000 C   0  0  0  0  0  0  0  0  0  0  0  0
   -4.0819   -0.6918    0.0000 C   0  0  0  0  0  0  0  0  0  0  0  0
   -3.7701   -2.1590    0.0000 C   0  0  0  0  0  0  0  0  0  0  0  0
   -4.8848   -3.1627    0.0000 C   0  0  0  0  0  0  0  0  0  0  0  0
   -6.3114   -2.6992    0.0000 C   0  0  0  0  0  0  0  0  0  0  0  0
   -7.6104   -3.4492    0.0000 N   0  0  0  0  0  0  0  0  0  0  0  0
   -8.7251   -2.4455    0.0000 C   0  0  0  0  0  0  0  0  0  0  0  0
   -8.1150   -1.0752    0.0000 C   0  0  0  0  0  0  0  0  0  0  0  0
   -6.6232   -1.2320    0.0000 C   0  0  0  0  0  0  0  0  0  0  0  0
   -5.5085   -0.2283    0.0000 C   0  0  0  0  0  0  0  0  0  0  0  0
   -1.5000    0.0000    0.0000 C   0  0  0  0  0  0  0  0  0  0  0  0
   -0.7500   -1.2990    0.0000 C   0  0  0  0  0  0  0  0  0  0  0  0
    0.7500   -3.8971    0.0000 C   0  0  0  0  0  0  0  0  0  0  0  0
    1.5000   -5.1962    0.0000 C   0  0  0  0  0  0  0  0  0  0  0  0
    3.7500   -9.0933    0.0000 C   0  0  0  0  0  0  0  0  0  0  0  0
    3.0000  -10.3923    0.0000 C   0  0  0  0  0  0  0  0  0  0  0  0
  1  2  1  0
  2  3  1  0
  3  4  1  0
  4  5  1  0
  5  6  1  0
  6  7  1  0
  7  8  2  0
  8  9  1  0
  9 10  2  0
 10 11  1  0
 11 12  2  0
 12 13  1  0
 13 14  2  0
 14 15  1  0
 15 16  1  0
 16 17  2  0
 17 18  1  0
 18 19  2  0
 19 20  1  0
 20 21  2  0
 21 22  1  0
 22 23  1  0
 23 24  2  0
 24 25  1  0
 25 26  2  0
 17 27  1  0
 27 28  2  0
 10 29  1  0
 29 30  2  0
  5 31  1  0
 31 32  1  0
 32  2  1  0
 30  7  1  0
 28 11  1  0
 27 14  1  0
 26 18  1  0
 25 21  1  0
M  END
>  <Compound_ID>  (318) 
CHEMBL2436978

>  <Molecule Name>  (318) 
nan

>  <Molecular Weight>  (318) 
421.55

>  <AlogP>  (318) 
5.13

>  <Smiles>  (318) 
CN1CCN(Cc2ccc(-c3cnc4[nH]cc(-c5ccc6[nH]ccc6c5)c4c3)cc2)CC1

>  <Standard Type>  (318) 
IC50

>  <Standard Relation>  (318) 
'='

>  <Standard Units>  (318) 
nM

>  <Standard Value>  (318) 
85.0

>  <Assay ChEMBL ID>  (318) 
CHEMBL2439151

>  <Assay Description>  (318) 
Inhibition of wild type human TRKA by high throughput ATP-[33P] radiolabeled assay

>  <BAO Format ID>  (318) 
BAO_0000357

>  <BAO Label>  (318) 
single protein format

>  <Assay Organism>  (318) 
Homo sapiens

>  <Target ChEMBL ID>  (318) 
CHEMBL2815

>  <Target Name>  (318) 
Nerve growth factor receptor Trk-A

>  <Target Organism>  (318) 
Homo sapiens

>  <Target Type>  (318) 
SINGLE PROTEIN

>  <Document ChEMBL ID>  (318) 
CHEMBL2434948

>  <Source Description>  (318) 
Scientific Literature

>  <Document Journal>  (318) 
J Med Chem

>  <Document Year>  (318) 
2013.0

>  <Active>  (318) 
1.0

>  <bits>  (318) 
<rdkit.DataStructs.cDataStructs.ExplicitBitVect object at 0x00000159F543D070>

>  <Group>  (318) 
G2

$$$$

     RDKit          2D

 31 33  0  0  0  0  0  0  0  0999 V2000
    3.7500   -1.2990    0.0000 C   0  0  0  0  0  0  0  0  0  0  0  0
    3.0000   -2.5981    0.0000 C   0  0  0  0  0  0  0  0  0  0  0  0
    3.7500   -3.8971    0.0000 C   0  0  0  0  0  0  0  0  0  0  0  0
    5.2500   -3.8971    0.0000 C   0  0  0  0  0  0  0  0  0  0  0  0
    6.0000   -5.1962    0.0000 C   0  0  0  0  0  0  0  0  0  0  0  0
    7.5000   -5.1962    0.0000 F   0  0  0  0  0  0  0  0  0  0  0  0
    5.2500   -6.4952    0.0000 C   0  0  0  0  0  0  0  0  0  0  0  0
    3.7500   -6.4952    0.0000 C   0  0  0  0  0  0  0  0  0  0  0  0
    3.0000   -5.1962    0.0000 C   0  0  0  0  0  0  0  0  0  0  0  0
    1.5000   -5.1962    0.0000 F   0  0  0  0  0  0  0  0  0  0  0  0
    1.5000   -2.5981    0.0000 N   0  0  0  0  0  0  0  0  0  0  0  0
    0.7500   -3.8971    0.0000 C   0  0  0  0  0  0  0  0  0  0  0  0
    0.7500   -1.2990    0.0000 C   0  0  0  0  0  0  0  0  0  0  0  0
    1.5000    0.0000    0.0000 C   0  0  0  0  0  0  0  0  0  0  0  0
    0.7500    1.2990    0.0000 C   0  0  0  0  0  0  0  0  0  0  0  0
   -0.7500    1.2990    0.0000 N   0  0  0  0  0  0  0  0  0  0  0  0
   -1.7537    2.4138    0.0000 N   0  0  0  0  0  0  0  0  0  0  0  0
   -3.1240    1.8037    0.0000 C   0  0  0  0  0  0  0  0  0  0  0  0
   -2.9672    0.3119    0.0000 C   0  0  0  0  0  0  0  0  0  0  0  0
   -4.0819   -0.6918    0.0000 N   0  0  0  0  0  0  0  0  0  0  0  0
   -5.5085   -0.2283    0.0000 C   0  0  0  0  0  0  0  0  0  0  0  0
   -5.8204    1.2389    0.0000 O   0  0  0  0  0  0  0  0  0  0  0  0
   -6.6232   -1.2320    0.0000 N   0  0  0  0  0  0  0  0  0  0  0  0
   -8.0498   -0.7685    0.0000 C   0  0  0  0  0  0  0  0  0  0  0  0
   -6.3114   -2.6992    0.0000 C   0  0  0  0  0  0  0  0  0  0  0  0
   -7.4261   -3.7029    0.0000 C   0  0  0  0  0  0  0  0  0  0  0  0
   -7.1142   -5.1701    0.0000 N   0  0  0  0  0  0  0  0  0  0  0  0
   -8.2289   -6.1738    0.0000 C   0  0  0  0  0  0  0  0  0  0  0  0
   -5.6876   -5.6337    0.0000 C   0  0  0  0  0  0  0  0  0  0  0  0
   -1.5000    0.0000    0.0000 C   0  0  0  0  0  0  0  0  0  0  0  0
   -0.7500   -1.2990    0.0000 N   0  0  0  0  0  0  0  0  0  0  0  0
  2  1  1  6
  2  3  1  0
  3  4  2  0
  4  5  1  0
  5  6  1  0
  5  7  2  0
  7  8  1  0
  8  9  2  0
  9 10  1  0
  2 11  1  0
 11 12  1  0
 11 13  1  0
 13 14  1  0
 14 15  2  0
 15 16  1  0
 16 17  1  0
 17 18  2  0
 18 19  1  0
 19 20  1  0
 20 21  1  0
 21 22  2  0
 21 23  1  0
 23 24  1  0
 23 25  1  0
 25 26  1  0
 26 27  1  0
 27 28  1  0
 27 29  1  0
 19 30  2  0
 30 31  1  0
  9  3  1  0
 31 13  2  0
 30 16  1  0
M  END
>  <Compound_ID>  (319) 
CHEMBL4759162

>  <Molecule Name>  (319) 
nan

>  <Molecular Weight>  (319) 
431.49

>  <AlogP>  (319) 
3.23

>  <Smiles>  (319) 
C[C@H](c1cc(F)ccc1F)N(C)c1ccn2ncc(NC(=O)N(C)CCN(C)C)c2n1

>  <Standard Type>  (319) 
IC50

>  <Standard Relation>  (319) 
'='

>  <Standard Units>  (319) 
nM

>  <Standard Value>  (319) 
8.0

>  <Assay ChEMBL ID>  (319) 
CHEMBL4678168

>  <Assay Description>  (319) 
Inhibition of Trk-A (unknown origin)

>  <BAO Format ID>  (319) 
BAO_0000357

>  <BAO Label>  (319) 
single protein format

>  <Assay Organism>  (319) 
Homo sapiens

>  <Target ChEMBL ID>  (319) 
CHEMBL2815

>  <Target Name>  (319) 
Nerve growth factor receptor Trk-A

>  <Target Organism>  (319) 
Homo sapiens

>  <Target Type>  (319) 
SINGLE PROTEIN

>  <Document ChEMBL ID>  (319) 
CHEMBL4673327

>  <Source Description>  (319) 
Scientific Literature

>  <Document Journal>  (319) 
Bioorg Med Chem Lett

>  <Document Year>  (319) 
2021.0

>  <Active>  (319) 
1.0

>  <bits>  (319) 
<rdkit.DataStructs.cDataStructs.ExplicitBitVect object at 0x00000159F543D4D0>

>  <Group>  (319) 
G2

$$$$

     RDKit          2D

 34 38  0  0  0  0  0  0  0  0999 V2000
   -7.0526  -11.4523    0.0000 C   0  0  0  0  0  0  0  0  0  0  0  0
   -5.6260  -10.9888    0.0000 O   0  0  0  0  0  0  0  0  0  0  0  0
   -5.3142   -9.5216    0.0000 C   0  0  0  0  0  0  0  0  0  0  0  0
   -6.4289   -8.5179    0.0000 C   0  0  0  0  0  0  0  0  0  0  0  0
   -6.1170   -7.0506    0.0000 C   0  0  0  0  0  0  0  0  0  0  0  0
   -4.6904   -6.5871    0.0000 C   0  0  0  0  0  0  0  0  0  0  0  0
   -4.3786   -5.1199    0.0000 N   0  0  0  0  0  0  0  0  0  0  0  0
   -2.9520   -4.6564    0.0000 C   0  0  0  0  0  0  0  0  0  0  0  0
   -1.8373   -5.6601    0.0000 O   0  0  0  0  0  0  0  0  0  0  0  0
   -2.6401   -3.1891    0.0000 N   0  0  0  0  0  0  0  0  0  0  0  0
   -1.2135   -2.7256    0.0000 C   0  0  0  0  0  0  0  0  0  0  0  0
   -0.0000   -3.6073    0.0000 C   0  0  0  0  0  0  0  0  0  0  0  0
    1.2135   -2.7256    0.0000 N   0  0  0  0  0  0  0  0  0  0  0  0
    0.7500   -1.2990    0.0000 N   0  0  0  0  0  0  0  0  0  0  0  0
    1.5000    0.0000    0.0000 C   0  0  0  0  0  0  0  0  0  0  0  0
    0.7500    1.2990    0.0000 C   0  0  0  0  0  0  0  0  0  0  0  0
   -0.7500    1.2990    0.0000 C   0  0  0  0  0  0  0  0  0  0  0  0
   -1.5000    2.5981    0.0000 N   0  0  0  0  0  0  0  0  0  0  0  0
   -2.9918    2.7549    0.0000 C   0  0  0  0  0  0  0  0  0  0  0  0
   -3.3037    4.2221    0.0000 C   0  0  0  0  0  0  0  0  0  0  0  0
   -2.0046    4.9721    0.0000 C   0  0  0  0  0  0  0  0  0  0  0  0
   -0.8899    3.9684    0.0000 C   0  0  0  0  0  0  0  0  0  0  0  0
    0.5773    4.2803    0.0000 C   0  0  0  0  0  0  0  0  0  0  0  0
    1.5810    3.1655    0.0000 C   0  0  0  0  0  0  0  0  0  0  0  0
    3.0482    3.4774    0.0000 C   0  0  0  0  0  0  0  0  0  0  0  0
    4.0519    2.3627    0.0000 F   0  0  0  0  0  0  0  0  0  0  0  0
    3.5118    4.9040    0.0000 C   0  0  0  0  0  0  0  0  0  0  0  0
    2.5081    6.0187    0.0000 C   0  0  0  0  0  0  0  0  0  0  0  0
    1.0409    5.7068    0.0000 C   0  0  0  0  0  0  0  0  0  0  0  0
    0.0372    6.8216    0.0000 F   0  0  0  0  0  0  0  0  0  0  0  0
   -1.5000    0.0000    0.0000 N   0  0  0  0  0  0  0  0  0  0  0  0
   -0.7500   -1.2990    0.0000 C   0  0  0  0  0  0  0  0  0  0  0  0
   -3.5757   -7.5908    0.0000 C   0  0  0  0  0  0  0  0  0  0  0  0
   -3.8876   -9.0580    0.0000 C   0  0  0  0  0  0  0  0  0  0  0  0
  1  2  1  0
  2  3  1  0
  3  4  2  0
  4  5  1  0
  5  6  2  0
  6  7  1  0
  7  8  1  0
  8  9  2  0
  8 10  1  0
 10 11  1  0
 11 12  1  0
 12 13  2  0
 13 14  1  0
 14 15  1  0
 15 16  2  0
 16 17  1  0
 17 18  1  0
 18 19  1  0
 19 20  1  0
 20 21  1  0
 21 22  1  0
 22 23  1  6
 23 24  2  0
 24 25  1  0
 25 26  1  0
 25 27  2  0
 27 28  1  0
 28 29  2  0
 29 30  1  0
 17 31  2  0
 31 32  1  0
  6 33  1  0
 33 34  2  0
 34  3  1  0
 32 11  2  0
 32 14  1  0
 22 18  1  0
 29 23  1  0
M  END
>  <Compound_ID>  (320) 
CHEMBL4107611

>  <Molecule Name>  (320) 
nan

>  <Molecular Weight>  (320) 
464.48

>  <AlogP>  (320) 
5.0

>  <Smiles>  (320) 
COc1ccc(NC(=O)Nc2cnn3ccc(N4CCC[C@@H]4c4cc(F)ccc4F)nc23)cc1

>  <Standard Type>  (320) 
IC50

>  <Standard Relation>  (320) 
'='

>  <Standard Units>  (320) 
nM

>  <Standard Value>  (320) 
4.8

>  <Assay ChEMBL ID>  (320) 
CHEMBL3887076

>  <Assay Description>  (320) 
ELISA Assay: An enzyme-linked immunosorbant assay (ELISA) was used to assess TrkA kinase activity in the presence of inhibitors. Immulon 4HBX 384-well microtiter plates (Thermo part #8755) were coated with a 0.025 mg/mL solution of poly (Glu, Ala, Tyr; 6:3:1; Sigma P3899). Various concentrations of test compound, 2.5 nM TrkA (Invitrogen Corp., histidine-tagged recombinant human TrkA, cytoplasmic domain), and 500 uM ATP were incubated for 25 minutes at ambient temperature in the coated plates while shaking. The assay buffer consisted of 25 mM MOPS pH 7.5, 0.005% (v/v) Triton X-100 and 5 mM MgCl2. The reaction mixture was removed from the plate by washing with PBS containing 0.1% (v/v) Tween 20. The phosphorylated reaction product was detected using 0.2 ug/mL of a phosphotyrosine specific monoclonal antibody (clone PY20) conjugated to horseradish peroxidase in conjunction with the TMB Peroxidase Substrate System (KPL).

>  <BAO Format ID>  (320) 
BAO_0000357

>  <BAO Label>  (320) 
single protein format

>  <Assay Organism>  (320) 
None

>  <Target ChEMBL ID>  (320) 
CHEMBL2815

>  <Target Name>  (320) 
Nerve growth factor receptor Trk-A

>  <Target Organism>  (320) 
Homo sapiens

>  <Target Type>  (320) 
SINGLE PROTEIN

>  <Document ChEMBL ID>  (320) 
CHEMBL3886151

>  <Source Description>  (320) 
BindingDB Database

>  <Document Journal>  (320) 
nan

>  <Document Year>  (320) 
2014.0

>  <Active>  (320) 
1.0

>  <bits>  (320) 
<rdkit.DataStructs.cDataStructs.ExplicitBitVect object at 0x00000159F543C900>

>  <Group>  (320) 
G2

$$$$

     RDKit          2D

 36 39  0  0  0  0  0  0  0  0999 V2000
  -14.3637   -5.5763    0.0000 C   0  0  0  0  0  0  0  0  0  0  0  0
  -13.4820   -4.3628    0.0000 C   0  0  0  0  0  0  0  0  0  0  0  0
  -14.0921   -2.9925    0.0000 C   0  0  0  0  0  0  0  0  0  0  0  0
  -11.9903   -4.5196    0.0000 N   0  0  0  0  0  0  0  0  0  0  0  0
  -10.9866   -3.4049    0.0000 N   0  0  0  0  0  0  0  0  0  0  0  0
   -9.6162   -4.0150    0.0000 C   0  0  0  0  0  0  0  0  0  0  0  0
   -9.7730   -5.5068    0.0000 C   0  0  0  0  0  0  0  0  0  0  0  0
   -8.6583   -6.5105    0.0000 C   0  0  0  0  0  0  0  0  0  0  0  0
   -7.2317   -6.0469    0.0000 C   0  0  0  0  0  0  0  0  0  0  0  0
   -6.9199   -4.5797    0.0000 O   0  0  0  0  0  0  0  0  0  0  0  0
   -6.1170   -7.0506    0.0000 N   0  0  0  0  0  0  0  0  0  0  0  0
   -4.6904   -6.5871    0.0000 C   0  0  0  0  0  0  0  0  0  0  0  0
   -3.5757   -7.5908    0.0000 C   0  0  0  0  0  0  0  0  0  0  0  0
   -2.1491   -7.1273    0.0000 N   0  0  0  0  0  0  0  0  0  0  0  0
   -1.8373   -5.6601    0.0000 C   0  0  0  0  0  0  0  0  0  0  0  0
   -2.9520   -4.6564    0.0000 C   0  0  0  0  0  0  0  0  0  0  0  0
   -2.6401   -3.1891    0.0000 C   0  0  0  0  0  0  0  0  0  0  0  0
   -3.7548   -2.1855    0.0000 O   0  0  0  0  0  0  0  0  0  0  0  0
   -1.2135   -2.7256    0.0000 C   0  0  0  0  0  0  0  0  0  0  0  0
   -0.0000   -3.6073    0.0000 C   0  0  0  0  0  0  0  0  0  0  0  0
    1.2135   -2.7256    0.0000 N   0  0  0  0  0  0  0  0  0  0  0  0
    2.6401   -3.1891    0.0000 C   0  0  0  0  0  0  0  0  0  0  0  0
    2.9520   -4.6564    0.0000 C   0  0  0  0  0  0  0  0  0  0  0  0
    3.7548   -2.1855    0.0000 C   0  0  0  0  0  0  0  0  0  0  0  0
    0.7500   -1.2990    0.0000 C   0  0  0  0  0  0  0  0  0  0  0  0
    1.5000    0.0000    0.0000 N   0  0  0  0  0  0  0  0  0  0  0  0
    0.7500    1.2990    0.0000 C   0  0  0  0  0  0  0  0  0  0  0  0
   -0.7500    1.2990    0.0000 N   0  0  0  0  0  0  0  0  0  0  0  0
   -1.5000    0.0000    0.0000 C   0  0  0  0  0  0  0  0  0  0  0  0
   -0.7500   -1.2990    0.0000 C   0  0  0  0  0  0  0  0  0  0  0  0
   -4.3786   -5.1199    0.0000 C   0  0  0  0  0  0  0  0  0  0  0  0
  -11.2403   -5.8186    0.0000 C   0  0  0  0  0  0  0  0  0  0  0  0
  -11.8504   -7.1890    0.0000 C   0  0  0  0  0  0  0  0  0  0  0  0
  -12.4605   -8.5593    0.0000 F   0  0  0  0  0  0  0  0  0  0  0  0
  -10.4800   -7.7991    0.0000 F   0  0  0  0  0  0  0  0  0  0  0  0
  -13.2207   -6.5789    0.0000 F   0  0  0  0  0  0  0  0  0  0  0  0
  1  2  1  0
  2  3  1  0
  2  4  1  0
  4  5  1  0
  5  6  2  0
  6  7  1  0
  7  8  1  0
  8  9  1  0
  9 10  2  0
  9 11  1  0
 11 12  1  0
 12 13  2  0
 13 14  1  0
 14 15  2  0
 15 16  1  0
 16 17  1  0
 17 18  2  0
 17 19  1  0
 19 20  2  0
 20 21  1  0
 21 22  1  0
 22 23  1  0
 22 24  1  0
 21 25  1  0
 25 26  2  0
 26 27  1  0
 27 28  2  0
 28 29  1  0
 29 30  2  0
 16 31  2  0
  7 32  2  0
 32 33  1  0
 33 34  1  0
 33 35  1  0
 33 36  1  0
 32  4  1  0
 31 12  1  0
 30 19  1  0
 30 25  1  0
M  END
>  <Compound_ID>  (321) 
CHEMBL3661506

>  <Molecule Name>  (321) 
nan

>  <Molecular Weight>  (321) 
499.5

>  <AlogP>  (321) 
4.62

>  <Smiles>  (321) 
CC(C)n1ncc(CC(=O)Nc2cncc(C(=O)c3cn(C(C)C)c4ncncc34)c2)c1C(F)(F)F

>  <Standard Type>  (321) 
IC50

>  <Standard Relation>  (321) 
'='

>  <Standard Units>  (321) 
nM

>  <Standard Value>  (321) 
57.8

>  <Assay ChEMBL ID>  (321) 
CHEMBL3887033

>  <Assay Description>  (321) 
Enzyme Assay: Isolated TRK Enzyme assays use the HTRF KinEASE-TK kit (Cisbio Cat# 62TK0PEJ) with recombinant His-tagged cytoplasmic domains of each TRK receptor sourced from Invitrogen (see table below). This activity-assay measures the phosphorylation of tyrosine residues within a substrate from the HTRF kit which has been validated by Cisbio for a variety of tyrosine kinases including the TRK receptors. Assay details: Target:TRKA; Invitrogen Cat# PV3144; Amino acids:aa 441-796; FAC enzyme:4nM; FAC ATP:40uM; Assay Reaction Time:35min.

>  <BAO Format ID>  (321) 
BAO_0000357

>  <BAO Label>  (321) 
single protein format

>  <Assay Organism>  (321) 
None

>  <Target ChEMBL ID>  (321) 
CHEMBL2815

>  <Target Name>  (321) 
Nerve growth factor receptor Trk-A

>  <Target Organism>  (321) 
Homo sapiens

>  <Target Type>  (321) 
SINGLE PROTEIN

>  <Document ChEMBL ID>  (321) 
CHEMBL3639348

>  <Source Description>  (321) 
BindingDB Database

>  <Document Journal>  (321) 
nan

>  <Document Year>  (321) 
2014.0

>  <Active>  (321) 
1.0

>  <bits>  (321) 
<rdkit.DataStructs.cDataStructs.ExplicitBitVect object at 0x00000159F543D9A0>

>  <Group>  (321) 
G2

$$$$

     RDKit          2D

 30 34  0  0  0  0  0  0  0  0999 V2000
   -3.7548   -2.1855    0.0000 O   0  0  0  0  0  0  0  0  0  0  0  0
   -2.6401   -3.1891    0.0000 C   0  0  0  0  0  0  0  0  0  0  0  0
   -2.9520   -4.6564    0.0000 N   0  0  0  0  0  0  0  0  0  0  0  0
   -4.3786   -5.1199    0.0000 C   0  0  0  0  0  0  0  0  0  0  0  0
   -4.8421   -6.5465    0.0000 C   0  0  0  0  0  0  0  0  0  0  0  0
   -6.3421   -6.5465    0.0000 C   0  0  0  0  0  0  0  0  0  0  0  0
   -6.8056   -5.1199    0.0000 C   0  0  0  0  0  0  0  0  0  0  0  0
   -5.5921   -4.2382    0.0000 C   0  0  0  0  0  0  0  0  0  0  0  0
   -5.5921   -2.7382    0.0000 O   0  0  0  0  0  0  0  0  0  0  0  0
   -1.2135   -2.7256    0.0000 C   0  0  0  0  0  0  0  0  0  0  0  0
   -0.0000   -3.6073    0.0000 C   0  0  0  0  0  0  0  0  0  0  0  0
    1.2135   -2.7256    0.0000 N   0  0  0  0  0  0  0  0  0  0  0  0
    0.7500   -1.2990    0.0000 N   0  0  0  0  0  0  0  0  0  0  0  0
    1.5000    0.0000    0.0000 C   0  0  0  0  0  0  0  0  0  0  0  0
    0.7500    1.2990    0.0000 C   0  0  0  0  0  0  0  0  0  0  0  0
   -0.7500    1.2990    0.0000 C   0  0  0  0  0  0  0  0  0  0  0  0
   -1.5000    2.5981    0.0000 N   0  0  0  0  0  0  0  0  0  0  0  0
   -2.9918    2.7549    0.0000 C   0  0  0  0  0  0  0  0  0  0  0  0
   -3.3037    4.2221    0.0000 C   0  0  0  0  0  0  0  0  0  0  0  0
   -2.0046    4.9721    0.0000 C   0  0  0  0  0  0  0  0  0  0  0  0
   -0.8899    3.9684    0.0000 C   0  0  0  0  0  0  0  0  0  0  0  0
    0.5773    4.2803    0.0000 C   0  0  0  0  0  0  0  0  0  0  0  0
    1.5810    3.1655    0.0000 C   0  0  0  0  0  0  0  0  0  0  0  0
    3.0482    3.4774    0.0000 N   0  0  0  0  0  0  0  0  0  0  0  0
    3.5118    4.9040    0.0000 C   0  0  0  0  0  0  0  0  0  0  0  0
    2.5081    6.0187    0.0000 C   0  0  0  0  0  0  0  0  0  0  0  0
    2.9716    7.4453    0.0000 F   0  0  0  0  0  0  0  0  0  0  0  0
    1.0409    5.7068    0.0000 C   0  0  0  0  0  0  0  0  0  0  0  0
   -1.5000    0.0000    0.0000 N   0  0  0  0  0  0  0  0  0  0  0  0
   -0.7500   -1.2990    0.0000 C   0  0  0  0  0  0  0  0  0  0  0  0
  1  2  2  0
  2  3  1  0
  4  3  1  1
  4  5  1  0
  5  6  1  0
  6  7  1  0
  7  8  1  0
  8  9  1  1
  2 10  1  0
 10 11  1  0
 11 12  2  0
 12 13  1  0
 13 14  1  0
 14 15  2  0
 15 16  1  0
 16 17  1  0
 17 18  1  0
 18 19  1  0
 19 20  1  0
 20 21  1  0
 21 22  1  0
 22 23  2  0
 23 24  1  0
 24 25  2  0
 25 26  1  0
 26 27  1  0
 26 28  2  0
 16 29  2  0
 29 30  1  0
  8  4  1  0
 30 10  2  0
 30 13  1  0
 21 17  1  0
 28 22  1  0
M  END
>  <Compound_ID>  (322) 
CHEMBL3675978

>  <Molecule Name>  (322) 
nan

>  <Molecular Weight>  (322) 
410.45

>  <AlogP>  (322) 
2.25

>  <Smiles>  (322) 
O=C(N[C@H]1CCC[C@H]1O)c1cnn2ccc(N3CCCC3c3cncc(F)c3)nc12

>  <Standard Type>  (322) 
IC50

>  <Standard Relation>  (322) 
'='

>  <Standard Units>  (322) 
nM

>  <Standard Value>  (322) 
83.1

>  <Assay ChEMBL ID>  (322) 
CHEMBL3887070

>  <Assay Description>  (322) 
ELISA Assay: An enzyme-linked immunosorbant assay (ELISA) was used to assess TrkA kinase activity in the presence of inhibitors. Immulon 4HBX 384-well microtiter plates (Thermo part #8755) were coated with a 0.025 mg/mL solution of poly (Glu, Ala, Tyr; 6:3:1; Sigma P3899). Various concentrations of test compound, 2.5 nM TrkA (Invitrogen Corp., histidine-tagged recombinant human TrkA, cytoplasmic domain), and 500 uM ATP were incubated for 25 minutes at ambient temperature in the coated plates while shaking The assay buffer consisted of 25 mM MOPS pH 7.5, 0.005% (v/v) Triton X-100 and 5 mM MgCl2. The reaction mixture was removed from the plate by washing with PBS containing 0.1% (v/v) Tween 20. The phosphorylated reaction product was detected using 0.2 ug/mL of a phosphotyrosine specific monoclonal antibody (clone PY20) conjugated to horseradish peroxidase in conjunction with the TMB Peroxidase Substrate System (KPL).

>  <BAO Format ID>  (322) 
BAO_0000357

>  <BAO Label>  (322) 
single protein format

>  <Assay Organism>  (322) 
None

>  <Target ChEMBL ID>  (322) 
CHEMBL2815

>  <Target Name>  (322) 
Nerve growth factor receptor Trk-A

>  <Target Organism>  (322) 
Homo sapiens

>  <Target Type>  (322) 
SINGLE PROTEIN

>  <Document ChEMBL ID>  (322) 
CHEMBL3638907

>  <Source Description>  (322) 
BindingDB Database

>  <Document Journal>  (322) 
nan

>  <Document Year>  (322) 
2014.0

>  <Active>  (322) 
1.0

>  <bits>  (322) 
<rdkit.DataStructs.cDataStructs.ExplicitBitVect object at 0x00000159F543C3C0>

>  <Group>  (322) 
G2

$$$$

     RDKit          2D

 30 33  0  0  0  0  0  0  0  0999 V2000
   -3.9150   -6.5465    0.0000 C   0  0  0  0  0  0  0  0  0  0  0  0
   -4.3786   -5.1199    0.0000 C   0  0  0  0  0  0  0  0  0  0  0  0
   -4.8421   -3.6933    0.0000 C   0  0  0  0  0  0  0  0  0  0  0  0
   -5.8051   -5.5834    0.0000 C   0  0  0  0  0  0  0  0  0  0  0  0
   -6.9199   -4.5797    0.0000 O   0  0  0  0  0  0  0  0  0  0  0  0
   -2.9520   -4.6564    0.0000 N   0  0  0  0  0  0  0  0  0  0  0  0
   -2.6401   -3.1891    0.0000 C   0  0  0  0  0  0  0  0  0  0  0  0
   -3.7548   -2.1855    0.0000 O   0  0  0  0  0  0  0  0  0  0  0  0
   -1.2135   -2.7256    0.0000 C   0  0  0  0  0  0  0  0  0  0  0  0
   -0.0000   -3.6073    0.0000 C   0  0  0  0  0  0  0  0  0  0  0  0
    1.2135   -2.7256    0.0000 N   0  0  0  0  0  0  0  0  0  0  0  0
    0.7500   -1.2990    0.0000 N   0  0  0  0  0  0  0  0  0  0  0  0
    1.5000    0.0000    0.0000 C   0  0  0  0  0  0  0  0  0  0  0  0
    0.7500    1.2990    0.0000 C   0  0  0  0  0  0  0  0  0  0  0  0
   -0.7500    1.2990    0.0000 C   0  0  0  0  0  0  0  0  0  0  0  0
   -1.5000    2.5981    0.0000 N   0  0  0  0  0  0  0  0  0  0  0  0
   -2.9918    2.7549    0.0000 C   0  0  0  0  0  0  0  0  0  0  0  0
   -3.3037    4.2221    0.0000 C   0  0  0  0  0  0  0  0  0  0  0  0
   -2.0046    4.9721    0.0000 C   0  0  0  0  0  0  0  0  0  0  0  0
   -0.8899    3.9684    0.0000 C   0  0  0  0  0  0  0  0  0  0  0  0
    0.5773    4.2803    0.0000 C   0  0  0  0  0  0  0  0  0  0  0  0
    1.5810    3.1655    0.0000 C   0  0  0  0  0  0  0  0  0  0  0  0
    3.0482    3.4774    0.0000 C   0  0  0  0  0  0  0  0  0  0  0  0
    4.0519    2.3627    0.0000 F   0  0  0  0  0  0  0  0  0  0  0  0
    3.5118    4.9040    0.0000 C   0  0  0  0  0  0  0  0  0  0  0  0
    2.5081    6.0187    0.0000 C   0  0  0  0  0  0  0  0  0  0  0  0
    1.0409    5.7068    0.0000 C   0  0  0  0  0  0  0  0  0  0  0  0
    0.0372    6.8216    0.0000 F   0  0  0  0  0  0  0  0  0  0  0  0
   -1.5000    0.0000    0.0000 N   0  0  0  0  0  0  0  0  0  0  0  0
   -0.7500   -1.2990    0.0000 C   0  0  0  0  0  0  0  0  0  0  0  0
  1  2  1  0
  2  3  1  0
  2  4  1  0
  4  5  1  0
  2  6  1  0
  6  7  1  0
  7  8  2  0
  7  9  1  0
  9 10  1  0
 10 11  2  0
 11 12  1  0
 12 13  1  0
 13 14  2  0
 14 15  1  0
 15 16  1  0
 16 17  1  0
 17 18  1  0
 18 19  1  0
 19 20  1  0
 20 21  1  6
 21 22  2  0
 22 23  1  0
 23 24  1  0
 23 25  2  0
 25 26  1  0
 26 27  2  0
 27 28  1  0
 15 29  2  0
 29 30  1  0
 30  9  2  0
 30 12  1  0
 20 16  1  0
 27 21  1  0
M  END
>  <Compound_ID>  (323) 
CHEMBL3671136

>  <Molecule Name>  (323) 
nan

>  <Molecular Weight>  (323) 
415.44

>  <AlogP>  (323) 
2.85

>  <Smiles>  (323) 
CC(C)(CO)NC(=O)c1cnn2ccc(N3CCC[C@@H]3c3cc(F)ccc3F)nc12

>  <Standard Type>  (323) 
IC50

>  <Standard Relation>  (323) 
'='

>  <Standard Units>  (323) 
nM

>  <Standard Value>  (323) 
1.1

>  <Assay ChEMBL ID>  (323) 
CHEMBL3887070

>  <Assay Description>  (323) 
ELISA Assay: An enzyme-linked immunosorbant assay (ELISA) was used to assess TrkA kinase activity in the presence of inhibitors. Immulon 4HBX 384-well microtiter plates (Thermo part #8755) were coated with a 0.025 mg/mL solution of poly (Glu, Ala, Tyr; 6:3:1; Sigma P3899). Various concentrations of test compound, 2.5 nM TrkA (Invitrogen Corp., histidine-tagged recombinant human TrkA, cytoplasmic domain), and 500 uM ATP were incubated for 25 minutes at ambient temperature in the coated plates while shaking The assay buffer consisted of 25 mM MOPS pH 7.5, 0.005% (v/v) Triton X-100 and 5 mM MgCl2. The reaction mixture was removed from the plate by washing with PBS containing 0.1% (v/v) Tween 20. The phosphorylated reaction product was detected using 0.2 ug/mL of a phosphotyrosine specific monoclonal antibody (clone PY20) conjugated to horseradish peroxidase in conjunction with the TMB Peroxidase Substrate System (KPL).

>  <BAO Format ID>  (323) 
BAO_0000357

>  <BAO Label>  (323) 
single protein format

>  <Assay Organism>  (323) 
None

>  <Target ChEMBL ID>  (323) 
CHEMBL2815

>  <Target Name>  (323) 
Nerve growth factor receptor Trk-A

>  <Target Organism>  (323) 
Homo sapiens

>  <Target Type>  (323) 
SINGLE PROTEIN

>  <Document ChEMBL ID>  (323) 
CHEMBL3638907

>  <Source Description>  (323) 
BindingDB Database

>  <Document Journal>  (323) 
nan

>  <Document Year>  (323) 
2014.0

>  <Active>  (323) 
1.0

>  <bits>  (323) 
<rdkit.DataStructs.cDataStructs.ExplicitBitVect object at 0x00000159F543D1C0>

>  <Group>  (323) 
G2

$$$$

     RDKit          2D

 39 43  0  0  0  0  0  0  0  0999 V2000
  -10.3292   -9.3610    0.0000 C   0  0  0  0  0  0  0  0  0  0  0  0
   -9.0572  -10.1558    0.0000 C   0  0  0  0  0  0  0  0  0  0  0  0
   -7.7851  -10.9507    0.0000 C   0  0  0  0  0  0  0  0  0  0  0  0
   -9.8520  -11.4279    0.0000 C   0  0  0  0  0  0  0  0  0  0  0  0
   -8.2623   -8.8838    0.0000 O   0  0  0  0  0  0  0  0  0  0  0  0
   -6.7632   -8.9361    0.0000 C   0  0  0  0  0  0  0  0  0  0  0  0
   -6.0590  -10.2605    0.0000 O   0  0  0  0  0  0  0  0  0  0  0  0
   -5.9683   -7.6640    0.0000 N   0  0  0  0  0  0  0  0  0  0  0  0
   -4.4692   -7.7164    0.0000 C   0  0  0  0  0  0  0  0  0  0  0  0
   -3.6744   -6.4443    0.0000 C   0  0  0  0  0  0  0  0  0  0  0  0
   -4.3786   -5.1199    0.0000 C   0  0  0  0  0  0  0  0  0  0  0  0
   -4.5873   -3.6345    0.0000 C   0  0  0  0  0  0  0  0  0  0  0  0
   -2.9520   -4.6564    0.0000 C   0  0  0  0  0  0  0  0  0  0  0  0
   -1.8373   -5.6601    0.0000 O   0  0  0  0  0  0  0  0  0  0  0  0
   -2.6401   -3.1891    0.0000 N   0  0  0  0  0  0  0  0  0  0  0  0
   -1.2135   -2.7256    0.0000 C   0  0  0  0  0  0  0  0  0  0  0  0
   -0.0000   -3.6073    0.0000 C   0  0  0  0  0  0  0  0  0  0  0  0
    1.2135   -2.7256    0.0000 N   0  0  0  0  0  0  0  0  0  0  0  0
    0.7500   -1.2990    0.0000 N   0  0  0  0  0  0  0  0  0  0  0  0
    1.5000    0.0000    0.0000 C   0  0  0  0  0  0  0  0  0  0  0  0
    0.7500    1.2990    0.0000 C   0  0  0  0  0  0  0  0  0  0  0  0
   -0.7500    1.2990    0.0000 C   0  0  0  0  0  0  0  0  0  0  0  0
   -1.5000    2.5981    0.0000 N   0  0  0  0  0  0  0  0  0  0  0  0
   -2.9918    2.7549    0.0000 C   0  0  0  0  0  0  0  0  0  0  0  0
   -3.3037    4.2221    0.0000 C   0  0  0  0  0  0  0  0  0  0  0  0
   -2.0046    4.9721    0.0000 C   0  0  0  0  0  0  0  0  0  0  0  0
   -0.8899    3.9684    0.0000 C   0  0  0  0  0  0  0  0  0  0  0  0
    0.5773    4.2803    0.0000 C   0  0  0  0  0  0  0  0  0  0  0  0
    1.5810    3.1655    0.0000 C   0  0  0  0  0  0  0  0  0  0  0  0
    3.0482    3.4774    0.0000 C   0  0  0  0  0  0  0  0  0  0  0  0
    4.0519    2.3627    0.0000 F   0  0  0  0  0  0  0  0  0  0  0  0
    3.5118    4.9040    0.0000 C   0  0  0  0  0  0  0  0  0  0  0  0
    2.5081    6.0187    0.0000 C   0  0  0  0  0  0  0  0  0  0  0  0
    1.0409    5.7068    0.0000 C   0  0  0  0  0  0  0  0  0  0  0  0
    0.0372    6.8216    0.0000 Cl  0  0  0  0  0  0  0  0  0  0  0  0
   -1.5000    0.0000    0.0000 N   0  0  0  0  0  0  0  0  0  0  0  0
   -0.7500   -1.2990    0.0000 C   0  0  0  0  0  0  0  0  0  0  0  0
   -5.8776   -5.0675    0.0000 C   0  0  0  0  0  0  0  0  0  0  0  0
   -6.6725   -6.3396    0.0000 C   0  0  0  0  0  0  0  0  0  0  0  0
  1  2  1  0
  2  3  1  0
  2  4  1  0
  2  5  1  0
  5  6  1  0
  6  7  2  0
  6  8  1  0
  8  9  1  0
  9 10  1  0
 10 11  1  0
 11 12  1  0
 11 13  1  0
 13 14  2  0
 13 15  1  0
 15 16  1  0
 16 17  1  0
 17 18  2  0
 18 19  1  0
 19 20  1  0
 20 21  2  0
 21 22  1  0
 22 23  1  0
 23 24  1  0
 24 25  1  0
 25 26  1  0
 26 27  1  0
 27 28  1  6
 28 29  2  0
 29 30  1  0
 30 31  1  0
 30 32  2  0
 32 33  1  0
 33 34  2  0
 34 35  1  0
 22 36  2  0
 36 37  1  0
 11 38  1  0
 38 39  1  0
 39  8  1  0
 37 16  2  0
 37 19  1  0
 27 23  1  0
 34 28  1  0
M  END
>  <Compound_ID>  (324) 
CHEMBL4115241

>  <Molecule Name>  (324) 
nan

>  <Molecular Weight>  (324) 
557.07

>  <AlogP>  (324) 
5.84

>  <Smiles>  (324) 
CC(C)(C)OC(=O)N1CCC(C)(C(=O)Nc2cnn3ccc(N4CCC[C@@H]4c4cc(F)ccc4Cl)nc23)CC1

>  <Standard Type>  (324) 
IC50

>  <Standard Relation>  (324) 
'='

>  <Standard Units>  (324) 
nM

>  <Standard Value>  (324) 
15.3

>  <Assay ChEMBL ID>  (324) 
CHEMBL3887076

>  <Assay Description>  (324) 
ELISA Assay: An enzyme-linked immunosorbant assay (ELISA) was used to assess TrkA kinase activity in the presence of inhibitors. Immulon 4HBX 384-well microtiter plates (Thermo part #8755) were coated with a 0.025 mg/mL solution of poly (Glu, Ala, Tyr; 6:3:1; Sigma P3899). Various concentrations of test compound, 2.5 nM TrkA (Invitrogen Corp., histidine-tagged recombinant human TrkA, cytoplasmic domain), and 500 uM ATP were incubated for 25 minutes at ambient temperature in the coated plates while shaking. The assay buffer consisted of 25 mM MOPS pH 7.5, 0.005% (v/v) Triton X-100 and 5 mM MgCl2. The reaction mixture was removed from the plate by washing with PBS containing 0.1% (v/v) Tween 20. The phosphorylated reaction product was detected using 0.2 ug/mL of a phosphotyrosine specific monoclonal antibody (clone PY20) conjugated to horseradish peroxidase in conjunction with the TMB Peroxidase Substrate System (KPL).

>  <BAO Format ID>  (324) 
BAO_0000357

>  <BAO Label>  (324) 
single protein format

>  <Assay Organism>  (324) 
None

>  <Target ChEMBL ID>  (324) 
CHEMBL2815

>  <Target Name>  (324) 
Nerve growth factor receptor Trk-A

>  <Target Organism>  (324) 
Homo sapiens

>  <Target Type>  (324) 
SINGLE PROTEIN

>  <Document ChEMBL ID>  (324) 
CHEMBL3886151

>  <Source Description>  (324) 
BindingDB Database

>  <Document Journal>  (324) 
nan

>  <Document Year>  (324) 
2014.0

>  <Active>  (324) 
1.0

>  <bits>  (324) 
<rdkit.DataStructs.cDataStructs.ExplicitBitVect object at 0x00000159F543DD90>

>  <Group>  (324) 
G2

$$$$

     RDKit          2D

 28 31  0  0  0  0  0  0  0  0999 V2000
   -4.6904   -6.5871    0.0000 C   0  0  0  0  0  0  0  0  0  0  0  0
   -4.3786   -5.1199    0.0000 C   0  0  0  0  0  0  0  0  0  0  0  0
   -5.4933   -4.1162    0.0000 C   0  0  0  0  0  0  0  0  0  0  0  0
   -6.9199   -4.5797    0.0000 O   0  0  0  0  0  0  0  0  0  0  0  0
   -2.9520   -4.6564    0.0000 N   0  0  0  0  0  0  0  0  0  0  0  0
   -2.6401   -3.1891    0.0000 C   0  0  0  0  0  0  0  0  0  0  0  0
   -3.7548   -2.1855    0.0000 O   0  0  0  0  0  0  0  0  0  0  0  0
   -1.2135   -2.7256    0.0000 C   0  0  0  0  0  0  0  0  0  0  0  0
   -0.0000   -3.6073    0.0000 C   0  0  0  0  0  0  0  0  0  0  0  0
    1.2135   -2.7256    0.0000 N   0  0  0  0  0  0  0  0  0  0  0  0
    0.7500   -1.2990    0.0000 N   0  0  0  0  0  0  0  0  0  0  0  0
    1.5000    0.0000    0.0000 C   0  0  0  0  0  0  0  0  0  0  0  0
    0.7500    1.2990    0.0000 C   0  0  0  0  0  0  0  0  0  0  0  0
   -0.7500    1.2990    0.0000 C   0  0  0  0  0  0  0  0  0  0  0  0
   -1.5000    2.5981    0.0000 N   0  0  0  0  0  0  0  0  0  0  0  0
   -2.9918    2.7549    0.0000 C   0  0  0  0  0  0  0  0  0  0  0  0
   -3.3037    4.2221    0.0000 C   0  0  0  0  0  0  0  0  0  0  0  0
   -2.0046    4.9721    0.0000 C   0  0  0  0  0  0  0  0  0  0  0  0
   -0.8899    3.9684    0.0000 C   0  0  0  0  0  0  0  0  0  0  0  0
    0.5773    4.2803    0.0000 C   0  0  0  0  0  0  0  0  0  0  0  0
    1.5810    3.1655    0.0000 C   0  0  0  0  0  0  0  0  0  0  0  0
    3.0482    3.4774    0.0000 N   0  0  0  0  0  0  0  0  0  0  0  0
    3.5118    4.9040    0.0000 C   0  0  0  0  0  0  0  0  0  0  0  0
    2.5081    6.0187    0.0000 C   0  0  0  0  0  0  0  0  0  0  0  0
    2.9716    7.4453    0.0000 F   0  0  0  0  0  0  0  0  0  0  0  0
    1.0409    5.7068    0.0000 C   0  0  0  0  0  0  0  0  0  0  0  0
   -1.5000    0.0000    0.0000 N   0  0  0  0  0  0  0  0  0  0  0  0
   -0.7500   -1.2990    0.0000 C   0  0  0  0  0  0  0  0  0  0  0  0
  2  1  1  1
  2  3  1  0
  3  4  1  0
  2  5  1  0
  5  6  1  0
  6  7  2  0
  6  8  1  0
  8  9  1  0
  9 10  2  0
 10 11  1  0
 11 12  1  0
 12 13  2  0
 13 14  1  0
 14 15  1  0
 15 16  1  0
 16 17  1  0
 17 18  1  0
 18 19  1  0
 19 20  1  0
 20 21  2  0
 21 22  1  0
 22 23  2  0
 23 24  1  0
 24 25  1  0
 24 26  2  0
 14 27  2  0
 27 28  1  0
 28  8  2  0
 28 11  1  0
 19 15  1  0
 26 20  1  0
M  END
>  <Compound_ID>  (325) 
CHEMBL3675990

>  <Molecule Name>  (325) 
nan

>  <Molecular Weight>  (325) 
384.42

>  <AlogP>  (325) 
1.72

>  <Smiles>  (325) 
C[C@@H](CO)NC(=O)c1cnn2ccc(N3CCCC3c3cncc(F)c3)nc12

>  <Standard Type>  (325) 
IC50

>  <Standard Relation>  (325) 
'='

>  <Standard Units>  (325) 
nM

>  <Standard Value>  (325) 
26.2

>  <Assay ChEMBL ID>  (325) 
CHEMBL3887070

>  <Assay Description>  (325) 
ELISA Assay: An enzyme-linked immunosorbant assay (ELISA) was used to assess TrkA kinase activity in the presence of inhibitors. Immulon 4HBX 384-well microtiter plates (Thermo part #8755) were coated with a 0.025 mg/mL solution of poly (Glu, Ala, Tyr; 6:3:1; Sigma P3899). Various concentrations of test compound, 2.5 nM TrkA (Invitrogen Corp., histidine-tagged recombinant human TrkA, cytoplasmic domain), and 500 uM ATP were incubated for 25 minutes at ambient temperature in the coated plates while shaking The assay buffer consisted of 25 mM MOPS pH 7.5, 0.005% (v/v) Triton X-100 and 5 mM MgCl2. The reaction mixture was removed from the plate by washing with PBS containing 0.1% (v/v) Tween 20. The phosphorylated reaction product was detected using 0.2 ug/mL of a phosphotyrosine specific monoclonal antibody (clone PY20) conjugated to horseradish peroxidase in conjunction with the TMB Peroxidase Substrate System (KPL).

>  <BAO Format ID>  (325) 
BAO_0000357

>  <BAO Label>  (325) 
single protein format

>  <Assay Organism>  (325) 
None

>  <Target ChEMBL ID>  (325) 
CHEMBL2815

>  <Target Name>  (325) 
Nerve growth factor receptor Trk-A

>  <Target Organism>  (325) 
Homo sapiens

>  <Target Type>  (325) 
SINGLE PROTEIN

>  <Document ChEMBL ID>  (325) 
CHEMBL3638907

>  <Source Description>  (325) 
BindingDB Database

>  <Document Journal>  (325) 
nan

>  <Document Year>  (325) 
2014.0

>  <Active>  (325) 
1.0

>  <bits>  (325) 
<rdkit.DataStructs.cDataStructs.ExplicitBitVect object at 0x00000159F543F450>

>  <Group>  (325) 
G2

$$$$

     RDKit          2D

 34 37  0  0  0  0  0  0  0  0999 V2000
   -6.9199   -4.5797    0.0000 O   0  0  0  0  0  0  0  0  0  0  0  0
   -7.2317   -6.0469    0.0000 C   0  0  0  0  0  0  0  0  0  0  0  0
   -8.6583   -6.5105    0.0000 C   0  0  0  0  0  0  0  0  0  0  0  0
   -9.7730   -5.5068    0.0000 C   0  0  0  0  0  0  0  0  0  0  0  0
   -9.4612   -4.0396    0.0000 C   0  0  0  0  0  0  0  0  0  0  0  0
  -10.5759   -3.0359    0.0000 C   0  0  0  0  0  0  0  0  0  0  0  0
  -12.0025   -3.4994    0.0000 C   0  0  0  0  0  0  0  0  0  0  0  0
  -13.1172   -2.4957    0.0000 Cl  0  0  0  0  0  0  0  0  0  0  0  0
  -12.3143   -4.9666    0.0000 C   0  0  0  0  0  0  0  0  0  0  0  0
  -11.1996   -5.9703    0.0000 C   0  0  0  0  0  0  0  0  0  0  0  0
  -11.5115   -7.4375    0.0000 Cl  0  0  0  0  0  0  0  0  0  0  0  0
   -6.1170   -7.0506    0.0000 N   0  0  0  0  0  0  0  0  0  0  0  0
   -4.6904   -6.5871    0.0000 C   0  0  0  0  0  0  0  0  0  0  0  0
   -3.5757   -7.5908    0.0000 C   0  0  0  0  0  0  0  0  0  0  0  0
   -2.1491   -7.1273    0.0000 N   0  0  0  0  0  0  0  0  0  0  0  0
   -1.8373   -5.6601    0.0000 C   0  0  0  0  0  0  0  0  0  0  0  0
   -2.9520   -4.6564    0.0000 C   0  0  0  0  0  0  0  0  0  0  0  0
   -2.6401   -3.1891    0.0000 C   0  0  0  0  0  0  0  0  0  0  0  0
   -3.7548   -2.1855    0.0000 O   0  0  0  0  0  0  0  0  0  0  0  0
   -1.2135   -2.7256    0.0000 C   0  0  0  0  0  0  0  0  0  0  0  0
   -0.0000   -3.6073    0.0000 C   0  0  0  0  0  0  0  0  0  0  0  0
    1.2135   -2.7256    0.0000 N   0  0  0  0  0  0  0  0  0  0  0  0
    2.6401   -3.1891    0.0000 C   0  0  0  0  0  0  0  0  0  0  0  0
    2.9520   -4.6564    0.0000 C   0  0  0  0  0  0  0  0  0  0  0  0
    4.3786   -5.1199    0.0000 O   0  0  0  0  0  0  0  0  0  0  0  0
    3.7548   -2.1855    0.0000 C   0  0  0  0  0  0  0  0  0  0  0  0
    5.1814   -2.6490    0.0000 O   0  0  0  0  0  0  0  0  0  0  0  0
    0.7500   -1.2990    0.0000 C   0  0  0  0  0  0  0  0  0  0  0  0
    1.5000    0.0000    0.0000 N   0  0  0  0  0  0  0  0  0  0  0  0
    0.7500    1.2990    0.0000 C   0  0  0  0  0  0  0  0  0  0  0  0
   -0.7500    1.2990    0.0000 N   0  0  0  0  0  0  0  0  0  0  0  0
   -1.5000    0.0000    0.0000 C   0  0  0  0  0  0  0  0  0  0  0  0
   -0.7500   -1.2990    0.0000 C   0  0  0  0  0  0  0  0  0  0  0  0
   -4.3786   -5.1199    0.0000 C   0  0  0  0  0  0  0  0  0  0  0  0
  1  2  2  0
  2  3  1  0
  3  4  1  0
  4  5  2  0
  5  6  1  0
  6  7  2  0
  7  8  1  0
  7  9  1  0
  9 10  2  0
 10 11  1  0
  2 12  1  0
 12 13  1  0
 13 14  2  0
 14 15  1  0
 15 16  2  0
 16 17  1  0
 17 18  1  0
 18 19  2  0
 18 20  1  0
 20 21  2  0
 21 22  1  0
 22 23  1  0
 23 24  1  0
 24 25  1  0
 23 26  1  0
 26 27  1  0
 22 28  1  0
 28 29  2  0
 29 30  1  0
 30 31  2  0
 31 32  1  0
 32 33  2  0
 17 34  2  0
 10  4  1  0
 34 13  1  0
 33 20  1  0
 33 28  1  0
M  END
>  <Compound_ID>  (326) 
CHEMBL3666279

>  <Molecule Name>  (326) 
nan

>  <Molecular Weight>  (326) 
500.34

>  <AlogP>  (326) 
3.07

>  <Smiles>  (326) 
O=C(Cc1ccc(Cl)cc1Cl)Nc1cncc(C(=O)c2cn(C(CO)CO)c3ncncc23)c1

>  <Standard Type>  (326) 
IC50

>  <Standard Relation>  (326) 
'='

>  <Standard Units>  (326) 
nM

>  <Standard Value>  (326) 
54.3

>  <Assay ChEMBL ID>  (326) 
CHEMBL3887033

>  <Assay Description>  (326) 
Enzyme Assay: Isolated TRK Enzyme assays use the HTRF KinEASE-TK kit (Cisbio Cat# 62TK0PEJ) with recombinant His-tagged cytoplasmic domains of each TRK receptor sourced from Invitrogen (see table below). This activity-assay measures the phosphorylation of tyrosine residues within a substrate from the HTRF kit which has been validated by Cisbio for a variety of tyrosine kinases including the TRK receptors. Assay details: Target:TRKA; Invitrogen Cat# PV3144; Amino acids:aa 441-796; FAC enzyme:4nM; FAC ATP:40uM; Assay Reaction Time:35min.

>  <BAO Format ID>  (326) 
BAO_0000357

>  <BAO Label>  (326) 
single protein format

>  <Assay Organism>  (326) 
None

>  <Target ChEMBL ID>  (326) 
CHEMBL2815

>  <Target Name>  (326) 
Nerve growth factor receptor Trk-A

>  <Target Organism>  (326) 
Homo sapiens

>  <Target Type>  (326) 
SINGLE PROTEIN

>  <Document ChEMBL ID>  (326) 
CHEMBL3639348

>  <Source Description>  (326) 
BindingDB Database

>  <Document Journal>  (326) 
nan

>  <Document Year>  (326) 
2014.0

>  <Active>  (326) 
1.0

>  <bits>  (326) 
<rdkit.DataStructs.cDataStructs.ExplicitBitVect object at 0x00000159F543D000>

>  <Group>  (326) 
G2

$$$$

     RDKit          2D

 33 37  0  0  0  0  0  0  0  0999 V2000
   -2.6401   -3.1891    0.0000 C   0  0  0  0  0  0  0  0  0  0  0  0
   -1.2135   -2.7256    0.0000 C   0  0  0  0  0  0  0  0  0  0  0  0
   -0.0000   -3.6073    0.0000 C   0  0  0  0  0  0  0  0  0  0  0  0
    1.2135   -2.7256    0.0000 O   0  0  0  0  0  0  0  0  0  0  0  0
    0.7500   -1.2990    0.0000 C   0  0  0  0  0  0  0  0  0  0  0  0
    1.5000    0.0000    0.0000 C   0  0  0  0  0  0  0  0  0  0  0  0
    0.7500    1.2990    0.0000 N   0  0  0  0  0  0  0  0  0  0  0  0
   -0.7500    1.2990    0.0000 C   0  0  0  0  0  0  0  0  0  0  0  0
   -1.5000    2.5981    0.0000 C   0  0  0  0  0  0  0  0  0  0  0  0
   -3.0000    2.5981    0.0000 O   0  0  0  0  0  0  0  0  0  0  0  0
   -0.7500    3.8971    0.0000 N   0  0  0  0  0  0  0  0  0  0  0  0
   -1.5000    5.1962    0.0000 C   0  0  0  0  0  0  0  0  0  0  0  0
   -0.7500    6.4952    0.0000 C   0  0  0  0  0  0  0  0  0  0  0  0
   -1.5000    7.7942    0.0000 N   0  0  0  0  0  0  0  0  0  0  0  0
   -3.0000    7.7942    0.0000 C   0  0  0  0  0  0  0  0  0  0  0  0
   -3.7500    6.4952    0.0000 C   0  0  0  0  0  0  0  0  0  0  0  0
   -5.2500    6.4952    0.0000 C   0  0  0  0  0  0  0  0  0  0  0  0
   -6.0000    5.1962    0.0000 O   0  0  0  0  0  0  0  0  0  0  0  0
   -6.0000    7.7942    0.0000 C   0  0  0  0  0  0  0  0  0  0  0  0
   -5.3899    9.1645    0.0000 C   0  0  0  0  0  0  0  0  0  0  0  0
   -6.5046   10.1682    0.0000 N   0  0  0  0  0  0  0  0  0  0  0  0
   -6.3478   11.6600    0.0000 C   0  0  0  0  0  0  0  0  0  0  0  0
   -4.9775   12.2701    0.0000 C   0  0  0  0  0  0  0  0  0  0  0  0
   -7.5613   12.5417    0.0000 C   0  0  0  0  0  0  0  0  0  0  0  0
   -7.8037    9.4182    0.0000 C   0  0  0  0  0  0  0  0  0  0  0  0
   -9.2302    9.8818    0.0000 N   0  0  0  0  0  0  0  0  0  0  0  0
  -10.3450    8.8781    0.0000 C   0  0  0  0  0  0  0  0  0  0  0  0
  -10.0331    7.4109    0.0000 N   0  0  0  0  0  0  0  0  0  0  0  0
   -8.6065    6.9473    0.0000 C   0  0  0  0  0  0  0  0  0  0  0  0
   -7.4918    7.9510    0.0000 C   0  0  0  0  0  0  0  0  0  0  0  0
   -3.0000    5.1962    0.0000 C   0  0  0  0  0  0  0  0  0  0  0  0
   -1.5000    0.0000    0.0000 C   0  0  0  0  0  0  0  0  0  0  0  0
   -0.7500   -1.2990    0.0000 C   0  0  0  0  0  0  0  0  0  0  0  0
  1  2  1  0
  2  3  2  0
  3  4  1  0
  4  5  1  0
  5  6  2  0
  6  7  1  0
  7  8  2  0
  8  9  1  0
  9 10  2  0
  9 11  1  0
 11 12  1  0
 12 13  2  0
 13 14  1  0
 14 15  2  0
 15 16  1  0
 16 17  1  0
 17 18  2  0
 17 19  1  0
 19 20  2  0
 20 21  1  0
 21 22  1  0
 22 23  1  0
 22 24  1  0
 21 25  1  0
 25 26  2  0
 26 27  1  0
 27 28  2  0
 28 29  1  0
 29 30  2  0
 16 31  2  0
  8 32  1  0
 32 33  2  0
 33  2  1  0
 33  5  1  0
 31 12  1  0
 30 19  1  0
 30 25  1  0
M  END
>  <Compound_ID>  (327) 
CHEMBL3666421

>  <Molecule Name>  (327) 
nan

>  <Molecular Weight>  (327) 
440.46

>  <AlogP>  (327) 
4.34

>  <Smiles>  (327) 
Cc1coc2cnc(C(=O)Nc3cncc(C(=O)c4cn(C(C)C)c5ncncc45)c3)cc12

>  <Standard Type>  (327) 
IC50

>  <Standard Relation>  (327) 
'='

>  <Standard Units>  (327) 
nM

>  <Standard Value>  (327) 
22.5

>  <Assay ChEMBL ID>  (327) 
CHEMBL3887033

>  <Assay Description>  (327) 
Enzyme Assay: Isolated TRK Enzyme assays use the HTRF KinEASE-TK kit (Cisbio Cat# 62TK0PEJ) with recombinant His-tagged cytoplasmic domains of each TRK receptor sourced from Invitrogen (see table below). This activity-assay measures the phosphorylation of tyrosine residues within a substrate from the HTRF kit which has been validated by Cisbio for a variety of tyrosine kinases including the TRK receptors. Assay details: Target:TRKA; Invitrogen Cat# PV3144; Amino acids:aa 441-796; FAC enzyme:4nM; FAC ATP:40uM; Assay Reaction Time:35min.

>  <BAO Format ID>  (327) 
BAO_0000357

>  <BAO Label>  (327) 
single protein format

>  <Assay Organism>  (327) 
None

>  <Target ChEMBL ID>  (327) 
CHEMBL2815

>  <Target Name>  (327) 
Nerve growth factor receptor Trk-A

>  <Target Organism>  (327) 
Homo sapiens

>  <Target Type>  (327) 
SINGLE PROTEIN

>  <Document ChEMBL ID>  (327) 
CHEMBL3639348

>  <Source Description>  (327) 
BindingDB Database

>  <Document Journal>  (327) 
nan

>  <Document Year>  (327) 
2014.0

>  <Active>  (327) 
1.0

>  <bits>  (327) 
<rdkit.DataStructs.cDataStructs.ExplicitBitVect object at 0x00000159F543C4A0>

>  <Group>  (327) 
G2

$$$$

     RDKit          2D

 31 34  0  0  0  0  0  0  0  0999 V2000
  -12.1352  -10.3720    0.0000 C   0  0  0  0  0  0  0  0  0  0  0  0
  -10.7086   -9.9084    0.0000 C   0  0  0  0  0  0  0  0  0  0  0  0
  -10.3968   -8.4412    0.0000 C   0  0  0  0  0  0  0  0  0  0  0  0
  -11.5115   -7.4375    0.0000 C   0  0  0  0  0  0  0  0  0  0  0  0
  -11.1996   -5.9703    0.0000 C   0  0  0  0  0  0  0  0  0  0  0  0
   -9.7730   -5.5068    0.0000 N   0  0  0  0  0  0  0  0  0  0  0  0
   -8.6583   -6.5105    0.0000 C   0  0  0  0  0  0  0  0  0  0  0  0
   -7.2317   -6.0469    0.0000 C   0  0  0  0  0  0  0  0  0  0  0  0
   -6.9199   -4.5797    0.0000 O   0  0  0  0  0  0  0  0  0  0  0  0
   -6.1170   -7.0506    0.0000 N   0  0  0  0  0  0  0  0  0  0  0  0
   -4.6904   -6.5871    0.0000 C   0  0  0  0  0  0  0  0  0  0  0  0
   -3.5757   -7.5908    0.0000 C   0  0  0  0  0  0  0  0  0  0  0  0
   -2.1491   -7.1273    0.0000 N   0  0  0  0  0  0  0  0  0  0  0  0
   -1.8373   -5.6601    0.0000 C   0  0  0  0  0  0  0  0  0  0  0  0
   -2.9520   -4.6564    0.0000 C   0  0  0  0  0  0  0  0  0  0  0  0
   -2.6401   -3.1891    0.0000 C   0  0  0  0  0  0  0  0  0  0  0  0
   -3.7548   -2.1855    0.0000 O   0  0  0  0  0  0  0  0  0  0  0  0
   -1.2135   -2.7256    0.0000 C   0  0  0  0  0  0  0  0  0  0  0  0
   -0.0000   -3.6073    0.0000 C   0  0  0  0  0  0  0  0  0  0  0  0
    1.2135   -2.7256    0.0000 N   0  0  0  0  0  0  0  0  0  0  0  0
    2.6401   -3.1891    0.0000 C   0  0  0  0  0  0  0  0  0  0  0  0
    2.9520   -4.6564    0.0000 C   0  0  0  0  0  0  0  0  0  0  0  0
    3.7548   -2.1855    0.0000 C   0  0  0  0  0  0  0  0  0  0  0  0
    0.7500   -1.2990    0.0000 C   0  0  0  0  0  0  0  0  0  0  0  0
    1.5000    0.0000    0.0000 N   0  0  0  0  0  0  0  0  0  0  0  0
    0.7500    1.2990    0.0000 C   0  0  0  0  0  0  0  0  0  0  0  0
   -0.7500    1.2990    0.0000 N   0  0  0  0  0  0  0  0  0  0  0  0
   -1.5000    0.0000    0.0000 C   0  0  0  0  0  0  0  0  0  0  0  0
   -0.7500   -1.2990    0.0000 C   0  0  0  0  0  0  0  0  0  0  0  0
   -4.3786   -5.1199    0.0000 C   0  0  0  0  0  0  0  0  0  0  0  0
   -8.9702   -7.9777    0.0000 C   0  0  0  0  0  0  0  0  0  0  0  0
  1  2  1  0
  2  3  1  0
  3  4  2  0
  4  5  1  0
  5  6  2  0
  6  7  1  0
  7  8  1  0
  8  9  2  0
  8 10  1  0
 10 11  1  0
 11 12  2  0
 12 13  1  0
 13 14  2  0
 14 15  1  0
 15 16  1  0
 16 17  2  0
 16 18  1  0
 18 19  2  0
 19 20  1  0
 20 21  1  0
 21 22  1  0
 21 23  1  0
 20 24  1  0
 24 25  2  0
 25 26  1  0
 26 27  2  0
 27 28  1  0
 28 29  2  0
 15 30  2  0
  7 31  2  0
 31  3  1  0
 30 11  1  0
 29 18  1  0
 29 24  1  0
M  END
>  <Compound_ID>  (328) 
CHEMBL3666427

>  <Molecule Name>  (328) 
nan

>  <Molecular Weight>  (328) 
414.47

>  <AlogP>  (328) 
3.85

>  <Smiles>  (328) 
CCc1ccnc(C(=O)Nc2cncc(C(=O)c3cn(C(C)C)c4ncncc34)c2)c1

>  <Standard Type>  (328) 
IC50

>  <Standard Relation>  (328) 
'='

>  <Standard Units>  (328) 
nM

>  <Standard Value>  (328) 
5.51

>  <Assay ChEMBL ID>  (328) 
CHEMBL3887033

>  <Assay Description>  (328) 
Enzyme Assay: Isolated TRK Enzyme assays use the HTRF KinEASE-TK kit (Cisbio Cat# 62TK0PEJ) with recombinant His-tagged cytoplasmic domains of each TRK receptor sourced from Invitrogen (see table below). This activity-assay measures the phosphorylation of tyrosine residues within a substrate from the HTRF kit which has been validated by Cisbio for a variety of tyrosine kinases including the TRK receptors. Assay details: Target:TRKA; Invitrogen Cat# PV3144; Amino acids:aa 441-796; FAC enzyme:4nM; FAC ATP:40uM; Assay Reaction Time:35min.

>  <BAO Format ID>  (328) 
BAO_0000357

>  <BAO Label>  (328) 
single protein format

>  <Assay Organism>  (328) 
None

>  <Target ChEMBL ID>  (328) 
CHEMBL2815

>  <Target Name>  (328) 
Nerve growth factor receptor Trk-A

>  <Target Organism>  (328) 
Homo sapiens

>  <Target Type>  (328) 
SINGLE PROTEIN

>  <Document ChEMBL ID>  (328) 
CHEMBL3639348

>  <Source Description>  (328) 
BindingDB Database

>  <Document Journal>  (328) 
nan

>  <Document Year>  (328) 
2014.0

>  <Active>  (328) 
1.0

>  <bits>  (328) 
<rdkit.DataStructs.cDataStructs.ExplicitBitVect object at 0x00000159F543CA50>

>  <Group>  (328) 
G2

$$$$

     RDKit          2D

 29 32  0  0  0  0  0  0  0  0999 V2000
   -6.4289   -8.5179    0.0000 C   0  0  0  0  0  0  0  0  0  0  0  0
   -6.1170   -7.0506    0.0000 O   0  0  0  0  0  0  0  0  0  0  0  0
   -4.6904   -6.5871    0.0000 C   0  0  0  0  0  0  0  0  0  0  0  0
   -4.3786   -5.1199    0.0000 C   0  0  0  0  0  0  0  0  0  0  0  0
   -2.9520   -4.6564    0.0000 N   0  0  0  0  0  0  0  0  0  0  0  0
   -2.6401   -3.1891    0.0000 C   0  0  0  0  0  0  0  0  0  0  0  0
   -3.7548   -2.1855    0.0000 O   0  0  0  0  0  0  0  0  0  0  0  0
   -1.2135   -2.7256    0.0000 C   0  0  0  0  0  0  0  0  0  0  0  0
   -0.0000   -3.6073    0.0000 C   0  0  0  0  0  0  0  0  0  0  0  0
    1.2135   -2.7256    0.0000 N   0  0  0  0  0  0  0  0  0  0  0  0
    0.7500   -1.2990    0.0000 N   0  0  0  0  0  0  0  0  0  0  0  0
    1.5000    0.0000    0.0000 C   0  0  0  0  0  0  0  0  0  0  0  0
    0.7500    1.2990    0.0000 C   0  0  0  0  0  0  0  0  0  0  0  0
   -0.7500    1.2990    0.0000 C   0  0  0  0  0  0  0  0  0  0  0  0
   -1.5000    2.5981    0.0000 N   0  0  0  0  0  0  0  0  0  0  0  0
   -2.9918    2.7549    0.0000 C   0  0  0  0  0  0  0  0  0  0  0  0
   -3.3037    4.2221    0.0000 C   0  0  0  0  0  0  0  0  0  0  0  0
   -2.0046    4.9721    0.0000 C   0  0  0  0  0  0  0  0  0  0  0  0
   -0.8899    3.9684    0.0000 C   0  0  0  0  0  0  0  0  0  0  0  0
    0.5773    4.2803    0.0000 C   0  0  0  0  0  0  0  0  0  0  0  0
    1.5810    3.1655    0.0000 C   0  0  0  0  0  0  0  0  0  0  0  0
    3.0482    3.4774    0.0000 C   0  0  0  0  0  0  0  0  0  0  0  0
    4.0519    2.3627    0.0000 F   0  0  0  0  0  0  0  0  0  0  0  0
    3.5118    4.9040    0.0000 C   0  0  0  0  0  0  0  0  0  0  0  0
    2.5081    6.0187    0.0000 N   0  0  0  0  0  0  0  0  0  0  0  0
    1.0409    5.7068    0.0000 C   0  0  0  0  0  0  0  0  0  0  0  0
    0.0372    6.8216    0.0000 C   0  0  0  0  0  0  0  0  0  0  0  0
   -1.5000    0.0000    0.0000 N   0  0  0  0  0  0  0  0  0  0  0  0
   -0.7500   -1.2990    0.0000 C   0  0  0  0  0  0  0  0  0  0  0  0
  1  2  1  0
  2  3  1  0
  3  4  1  0
  4  5  1  0
  5  6  1  0
  6  7  2  0
  6  8  1  0
  8  9  1  0
  9 10  2  0
 10 11  1  0
 11 12  1  0
 12 13  2  0
 13 14  1  0
 14 15  1  0
 15 16  1  0
 16 17  1  0
 17 18  1  0
 18 19  1  0
 19 20  1  0
 20 21  2  0
 21 22  1  0
 22 23  1  0
 22 24  2  0
 24 25  1  0
 25 26  2  0
 26 27  1  0
 14 28  2  0
 28 29  1  0
 29  8  2  0
 29 11  1  0
 19 15  1  0
 26 20  1  0
M  END
>  <Compound_ID>  (329) 
CHEMBL3676059

>  <Molecule Name>  (329) 
nan

>  <Molecular Weight>  (329) 
398.44

>  <AlogP>  (329) 
2.29

>  <Smiles>  (329) 
COCCNC(=O)c1cnn2ccc(N3CCCC3c3cc(F)cnc3C)nc12

>  <Standard Type>  (329) 
IC50

>  <Standard Relation>  (329) 
'='

>  <Standard Units>  (329) 
nM

>  <Standard Value>  (329) 
69.5

>  <Assay ChEMBL ID>  (329) 
CHEMBL3887070

>  <Assay Description>  (329) 
ELISA Assay: An enzyme-linked immunosorbant assay (ELISA) was used to assess TrkA kinase activity in the presence of inhibitors. Immulon 4HBX 384-well microtiter plates (Thermo part #8755) were coated with a 0.025 mg/mL solution of poly (Glu, Ala, Tyr; 6:3:1; Sigma P3899). Various concentrations of test compound, 2.5 nM TrkA (Invitrogen Corp., histidine-tagged recombinant human TrkA, cytoplasmic domain), and 500 uM ATP were incubated for 25 minutes at ambient temperature in the coated plates while shaking The assay buffer consisted of 25 mM MOPS pH 7.5, 0.005% (v/v) Triton X-100 and 5 mM MgCl2. The reaction mixture was removed from the plate by washing with PBS containing 0.1% (v/v) Tween 20. The phosphorylated reaction product was detected using 0.2 ug/mL of a phosphotyrosine specific monoclonal antibody (clone PY20) conjugated to horseradish peroxidase in conjunction with the TMB Peroxidase Substrate System (KPL).

>  <BAO Format ID>  (329) 
BAO_0000357

>  <BAO Label>  (329) 
single protein format

>  <Assay Organism>  (329) 
None

>  <Target ChEMBL ID>  (329) 
CHEMBL2815

>  <Target Name>  (329) 
Nerve growth factor receptor Trk-A

>  <Target Organism>  (329) 
Homo sapiens

>  <Target Type>  (329) 
SINGLE PROTEIN

>  <Document ChEMBL ID>  (329) 
CHEMBL3638907

>  <Source Description>  (329) 
BindingDB Database

>  <Document Journal>  (329) 
nan

>  <Document Year>  (329) 
2014.0

>  <Active>  (329) 
1.0

>  <bits>  (329) 
<rdkit.DataStructs.cDataStructs.ExplicitBitVect object at 0x00000159F543CF20>

>  <Group>  (329) 
G2

$$$$

     RDKit          2D

 34 37  0  0  0  0  0  0  0  0999 V2000
   -2.9520   -4.6564    0.0000 C   0  0  0  0  0  0  0  0  0  0  0  0
   -2.6401   -3.1891    0.0000 C   0  0  0  0  0  0  0  0  0  0  0  0
   -3.7548   -2.1855    0.0000 C   0  0  0  0  0  0  0  0  0  0  0  0
   -1.2135   -2.7256    0.0000 N   0  0  0  0  0  0  0  0  0  0  0  0
   -0.0000   -3.6073    0.0000 C   0  0  0  0  0  0  0  0  0  0  0  0
    1.2135   -2.7256    0.0000 C   0  0  0  0  0  0  0  0  0  0  0  0
    2.6401   -3.1891    0.0000 C   0  0  0  0  0  0  0  0  0  0  0  0
    3.7548   -2.1855    0.0000 O   0  0  0  0  0  0  0  0  0  0  0  0
    2.9520   -4.6564    0.0000 C   0  0  0  0  0  0  0  0  0  0  0  0
    1.8373   -5.6601    0.0000 C   0  0  0  0  0  0  0  0  0  0  0  0
    2.1491   -7.1273    0.0000 N   0  0  0  0  0  0  0  0  0  0  0  0
    3.5757   -7.5908    0.0000 C   0  0  0  0  0  0  0  0  0  0  0  0
    4.6904   -6.5871    0.0000 C   0  0  0  0  0  0  0  0  0  0  0  0
    6.1170   -7.0506    0.0000 N   0  0  0  0  0  0  0  0  0  0  0  0
    6.4289   -8.5179    0.0000 C   0  0  0  0  0  0  0  0  0  0  0  0
    5.3142   -9.5216    0.0000 O   0  0  0  0  0  0  0  0  0  0  0  0
    7.8555   -8.9814    0.0000 C   0  0  0  0  0  0  0  0  0  0  0  0
    8.1673  -10.4486    0.0000 C   0  0  0  0  0  0  0  0  0  0  0  0
    7.0526  -11.4523    0.0000 C   0  0  0  0  0  0  0  0  0  0  0  0
    7.3645  -12.9195    0.0000 C   0  0  0  0  0  0  0  0  0  0  0  0
    8.7911  -13.3831    0.0000 C   0  0  0  0  0  0  0  0  0  0  0  0
    9.9058  -12.3794    0.0000 C   0  0  0  0  0  0  0  0  0  0  0  0
   11.3324  -12.8429    0.0000 S   0  0  0  0  0  0  0  0  0  0  0  0
   12.7590  -13.3064    0.0000 C   0  0  0  0  0  0  0  0  0  0  0  0
   11.7959  -11.4163    0.0000 O   0  0  0  0  0  0  0  0  0  0  0  0
   10.8688  -14.2695    0.0000 O   0  0  0  0  0  0  0  0  0  0  0  0
    9.5939  -10.9121    0.0000 C   0  0  0  0  0  0  0  0  0  0  0  0
    4.3786   -5.1199    0.0000 C   0  0  0  0  0  0  0  0  0  0  0  0
    0.7500   -1.2990    0.0000 C   0  0  0  0  0  0  0  0  0  0  0  0
    1.5000    0.0000    0.0000 C   0  0  0  0  0  0  0  0  0  0  0  0
    0.7500    1.2990    0.0000 N   0  0  0  0  0  0  0  0  0  0  0  0
   -0.7500    1.2990    0.0000 C   0  0  0  0  0  0  0  0  0  0  0  0
   -1.5000    0.0000    0.0000 N   0  0  0  0  0  0  0  0  0  0  0  0
   -0.7500   -1.2990    0.0000 C   0  0  0  0  0  0  0  0  0  0  0  0
  1  2  1  0
  2  3  1  0
  2  4  1  0
  4  5  1  0
  5  6  2  0
  6  7  1  0
  7  8  2  0
  7  9  1  0
  9 10  2  0
 10 11  1  0
 11 12  2  0
 12 13  1  0
 13 14  1  0
 14 15  1  0
 15 16  2  0
 15 17  1  0
 17 18  1  0
 18 19  2  0
 19 20  1  0
 20 21  2  0
 21 22  1  0
 22 23  1  0
 23 24  1  0
 23 25  2  0
 23 26  2  0
 22 27  2  0
 13 28  2  0
  6 29  1  0
 29 30  2  0
 30 31  1  0
 31 32  2  0
 32 33  1  0
 33 34  2  0
 34  4  1  0
 28  9  1  0
 34 29  1  0
 27 18  1  0
M  END
>  <Compound_ID>  (330) 
CHEMBL3661482

>  <Molecule Name>  (330) 
nan

>  <Molecular Weight>  (330) 
477.55

>  <AlogP>  (330) 
3.22

>  <Smiles>  (330) 
CC(C)n1cc(C(=O)c2cncc(NC(=O)Cc3cccc(S(C)(=O)=O)c3)c2)c2cncnc21

>  <Standard Type>  (330) 
IC50

>  <Standard Relation>  (330) 
'='

>  <Standard Units>  (330) 
nM

>  <Standard Value>  (330) 
63.2

>  <Assay ChEMBL ID>  (330) 
CHEMBL3887033

>  <Assay Description>  (330) 
Enzyme Assay: Isolated TRK Enzyme assays use the HTRF KinEASE-TK kit (Cisbio Cat# 62TK0PEJ) with recombinant His-tagged cytoplasmic domains of each TRK receptor sourced from Invitrogen (see table below). This activity-assay measures the phosphorylation of tyrosine residues within a substrate from the HTRF kit which has been validated by Cisbio for a variety of tyrosine kinases including the TRK receptors. Assay details: Target:TRKA; Invitrogen Cat# PV3144; Amino acids:aa 441-796; FAC enzyme:4nM; FAC ATP:40uM; Assay Reaction Time:35min.

>  <BAO Format ID>  (330) 
BAO_0000357

>  <BAO Label>  (330) 
single protein format

>  <Assay Organism>  (330) 
None

>  <Target ChEMBL ID>  (330) 
CHEMBL2815

>  <Target Name>  (330) 
Nerve growth factor receptor Trk-A

>  <Target Organism>  (330) 
Homo sapiens

>  <Target Type>  (330) 
SINGLE PROTEIN

>  <Document ChEMBL ID>  (330) 
CHEMBL3639348

>  <Source Description>  (330) 
BindingDB Database

>  <Document Journal>  (330) 
nan

>  <Document Year>  (330) 
2014.0

>  <Active>  (330) 
1.0

>  <bits>  (330) 
<rdkit.DataStructs.cDataStructs.ExplicitBitVect object at 0x00000159F543F060>

>  <Group>  (330) 
G2

$$$$

     RDKit          2D

 33 36  0  0  0  0  0  0  0  0999 V2000
   -8.3172   -3.2650    0.0000 C   0  0  0  0  0  0  0  0  0  0  0  0
   -9.6162   -4.0150    0.0000 C   0  0  0  0  0  0  0  0  0  0  0  0
  -10.9866   -3.4049    0.0000 C   0  0  0  0  0  0  0  0  0  0  0  0
  -11.9903   -4.5196    0.0000 C   0  0  0  0  0  0  0  0  0  0  0  0
  -13.4820   -4.3628    0.0000 C   0  0  0  0  0  0  0  0  0  0  0  0
  -14.0921   -2.9925    0.0000 C   0  0  0  0  0  0  0  0  0  0  0  0
  -14.3637   -5.5763    0.0000 C   0  0  0  0  0  0  0  0  0  0  0  0
  -11.2403   -5.8186    0.0000 N   0  0  0  0  0  0  0  0  0  0  0  0
   -9.7730   -5.5068    0.0000 N   0  0  0  0  0  0  0  0  0  0  0  0
   -8.6583   -6.5105    0.0000 C   0  0  0  0  0  0  0  0  0  0  0  0
   -7.2317   -6.0469    0.0000 C   0  0  0  0  0  0  0  0  0  0  0  0
   -6.9199   -4.5797    0.0000 O   0  0  0  0  0  0  0  0  0  0  0  0
   -6.1170   -7.0506    0.0000 N   0  0  0  0  0  0  0  0  0  0  0  0
   -4.6904   -6.5871    0.0000 C   0  0  0  0  0  0  0  0  0  0  0  0
   -3.5757   -7.5908    0.0000 C   0  0  0  0  0  0  0  0  0  0  0  0
   -2.1491   -7.1273    0.0000 N   0  0  0  0  0  0  0  0  0  0  0  0
   -1.8373   -5.6601    0.0000 C   0  0  0  0  0  0  0  0  0  0  0  0
   -2.9520   -4.6564    0.0000 C   0  0  0  0  0  0  0  0  0  0  0  0
   -2.6401   -3.1891    0.0000 C   0  0  0  0  0  0  0  0  0  0  0  0
   -3.7548   -2.1855    0.0000 O   0  0  0  0  0  0  0  0  0  0  0  0
   -1.2135   -2.7256    0.0000 C   0  0  0  0  0  0  0  0  0  0  0  0
   -0.0000   -3.6073    0.0000 C   0  0  0  0  0  0  0  0  0  0  0  0
    1.2135   -2.7256    0.0000 N   0  0  0  0  0  0  0  0  0  0  0  0
    2.6401   -3.1891    0.0000 C   0  0  0  0  0  0  0  0  0  0  0  0
    2.9520   -4.6564    0.0000 C   0  0  0  0  0  0  0  0  0  0  0  0
    3.7548   -2.1855    0.0000 C   0  0  0  0  0  0  0  0  0  0  0  0
    0.7500   -1.2990    0.0000 C   0  0  0  0  0  0  0  0  0  0  0  0
    1.5000    0.0000    0.0000 C   0  0  0  0  0  0  0  0  0  0  0  0
    0.7500    1.2990    0.0000 C   0  0  0  0  0  0  0  0  0  0  0  0
   -0.7500    1.2990    0.0000 N   0  0  0  0  0  0  0  0  0  0  0  0
   -1.5000    0.0000    0.0000 C   0  0  0  0  0  0  0  0  0  0  0  0
   -0.7500   -1.2990    0.0000 C   0  0  0  0  0  0  0  0  0  0  0  0
   -4.3786   -5.1199    0.0000 C   0  0  0  0  0  0  0  0  0  0  0  0
  1  2  1  0
  2  3  2  0
  3  4  1  0
  4  5  1  0
  5  6  1  0
  5  7  1  0
  4  8  2  0
  8  9  1  0
  9 10  1  0
 10 11  1  0
 11 12  2  0
 11 13  1  0
 13 14  1  0
 14 15  2  0
 15 16  1  0
 16 17  2  0
 17 18  1  0
 18 19  1  0
 19 20  2  0
 19 21  1  0
 21 22  2  0
 22 23  1  0
 23 24  1  0
 24 25  1  0
 24 26  1  0
 23 27  1  0
 27 28  2  0
 28 29  1  0
 29 30  2  0
 30 31  1  0
 31 32  2  0
 18 33  2  0
  9  2  1  0
 33 14  1  0
 32 21  1  0
 32 27  1  0
M  END
>  <Compound_ID>  (331) 
CHEMBL3924761

>  <Molecule Name>  (331) 
nan

>  <Molecular Weight>  (331) 
444.54

>  <AlogP>  (331) 
4.51

>  <Smiles>  (331) 
Cc1cc(C(C)C)nn1CC(=O)Nc1cncc(C(=O)c2cn(C(C)C)c3ccncc23)c1

>  <Standard Type>  (331) 
IC50

>  <Standard Relation>  (331) 
'='

>  <Standard Units>  (331) 
nM

>  <Standard Value>  (331) 
39.5

>  <Assay ChEMBL ID>  (331) 
CHEMBL3887111

>  <Assay Description>  (331) 
HTRF Assay: Isolated TRK Enzyme assays use the HTRF KinEASE-TK kit (Cisbio Cat#62TK0PEJ) with recombinant His-tagged cytoplasmic domains of each TRK receptor sourced from Invitrogen (see table below). This activity-assay measures the phosphorylation of tyrosine residues within a substrate from the HTRF kit which has been validated by Cisbio for a variety of tyrosine kinases including the TRK receptors.Assay Details: Invitrogen Amino FAC FAC Assay ReactionTarget Cat# acids enzyme ATP TimeTRKA PV3144 aa 441-4 nM 40 uM 35 min (NTRK1) 796 TRKB PV3616 aa 526-1 nM 1.4 uM 40 min (NTRK2) 838 TRKC PV3617 aa 510- 10 nM 15 uM 30 min (NTRK3) 8250.5 mM stock solutions of test compounds are prepared and serially diluted in 100% DMSO. A standard curve using the compound of Example 135 disclosed in WO2005/116035 of 150 uM is also prepared on each test plate. High percentage effect (HPE) is defined by 150 uM.

>  <BAO Format ID>  (331) 
BAO_0000357

>  <BAO Label>  (331) 
single protein format

>  <Assay Organism>  (331) 
None

>  <Target ChEMBL ID>  (331) 
CHEMBL2815

>  <Target Name>  (331) 
Nerve growth factor receptor Trk-A

>  <Target Organism>  (331) 
Homo sapiens

>  <Target Type>  (331) 
SINGLE PROTEIN

>  <Document ChEMBL ID>  (331) 
CHEMBL3886170

>  <Source Description>  (331) 
BindingDB Database

>  <Document Journal>  (331) 
nan

>  <Document Year>  (331) 
2015.0

>  <Active>  (331) 
1.0

>  <bits>  (331) 
<rdkit.DataStructs.cDataStructs.ExplicitBitVect object at 0x00000159F543FBC0>

>  <Group>  (331) 
G2

$$$$

     RDKit          2D

 26 29  0  0  0  0  0  0  0  0999 V2000
    1.5000   -7.7942    0.0000 F   0  0  0  0  0  0  0  0  0  0  0  0
    0.7500   -6.4952    0.0000 C   0  0  0  0  0  0  0  0  0  0  0  0
   -0.7500   -6.4952    0.0000 C   0  0  0  0  0  0  0  0  0  0  0  0
   -1.5000   -5.1962    0.0000 C   0  0  0  0  0  0  0  0  0  0  0  0
   -3.0000   -5.1962    0.0000 F   0  0  0  0  0  0  0  0  0  0  0  0
   -0.7500   -3.8971    0.0000 C   0  0  0  0  0  0  0  0  0  0  0  0
    0.7500   -3.8971    0.0000 C   0  0  0  0  0  0  0  0  0  0  0  0
    1.5000   -2.5981    0.0000 S   0  0  0  0  0  0  0  0  0  0  0  0
    0.7500   -1.2990    0.0000 C   0  0  0  0  0  0  0  0  0  0  0  0
    1.5000    0.0000    0.0000 C   0  0  0  0  0  0  0  0  0  0  0  0
    0.7500    1.2990    0.0000 C   0  0  0  0  0  0  0  0  0  0  0  0
   -0.7500    1.2990    0.0000 C   0  0  0  0  0  0  0  0  0  0  0  0
   -1.7537    2.4138    0.0000 N   0  0  0  0  0  0  0  0  0  0  0  0
   -3.1240    1.8037    0.0000 N   0  0  0  0  0  0  0  0  0  0  0  0
   -2.9672    0.3119    0.0000 C   0  0  0  0  0  0  0  0  0  0  0  0
   -4.0819   -0.6918    0.0000 C   0  0  0  0  0  0  0  0  0  0  0  0
   -5.5085   -0.2283    0.0000 C   0  0  0  0  0  0  0  0  0  0  0  0
   -6.6232   -1.2320    0.0000 C   0  0  0  0  0  0  0  0  0  0  0  0
   -8.0498   -0.7685    0.0000 C   0  0  0  0  0  0  0  0  0  0  0  0
   -9.1645   -1.7722    0.0000 C   0  0  0  0  0  0  0  0  0  0  0  0
   -8.8527   -3.2394    0.0000 C   0  0  0  0  0  0  0  0  0  0  0  0
   -7.4261   -3.7029    0.0000 C   0  0  0  0  0  0  0  0  0  0  0  0
   -6.3114   -2.6992    0.0000 N   0  0  0  0  0  0  0  0  0  0  0  0
   -1.5000    0.0000    0.0000 C   0  0  0  0  0  0  0  0  0  0  0  0
   -0.7500   -1.2990    0.0000 C   0  0  0  0  0  0  0  0  0  0  0  0
    1.5000   -5.1962    0.0000 C   0  0  0  0  0  0  0  0  0  0  0  0
  1  2  1  0
  2  3  2  0
  3  4  1  0
  4  5  1  0
  4  6  2  0
  6  7  1  0
  7  8  1  0
  8  9  1  0
  9 10  2  0
 10 11  1  0
 11 12  2  0
 12 13  1  0
 13 14  1  0
 14 15  2  0
 15 16  1  0
 16 17  2  0
 17 18  1  0
 18 19  2  0
 19 20  1  0
 20 21  2  0
 21 22  1  0
 22 23  2  0
 15 24  1  0
 24 25  2  0
  7 26  2  0
 26  2  1  0
 25  9  1  0
 24 12  1  0
 23 18  1  0
M  END
>  <Compound_ID>  (332) 
CHEMBL4797186

>  <Molecule Name>  (332) 
nan

>  <Molecular Weight>  (332) 
365.41

>  <AlogP>  (332) 
5.56

>  <Smiles>  (332) 
Fc1cc(F)cc(Sc2ccc3[nH]nc(/C=C/c4ccccn4)c3c2)c1

>  <Standard Type>  (332) 
IC50

>  <Standard Relation>  (332) 
'='

>  <Standard Units>  (332) 
nM

>  <Standard Value>  (332) 
23.9

>  <Assay ChEMBL ID>  (332) 
CHEMBL4772612

>  <Assay Description>  (332) 
Inhibition of TrkA (unknown origin) using Tyr1 peptide as substrate in presence of ATP measured after 2 hrs by FRET-based Z-Lyte kinase assay

>  <BAO Format ID>  (332) 
BAO_0000357

>  <BAO Label>  (332) 
single protein format

>  <Assay Organism>  (332) 
Homo sapiens

>  <Target ChEMBL ID>  (332) 
CHEMBL2815

>  <Target Name>  (332) 
Nerve growth factor receptor Trk-A

>  <Target Organism>  (332) 
Homo sapiens

>  <Target Type>  (332) 
SINGLE PROTEIN

>  <Document ChEMBL ID>  (332) 
CHEMBL4765391

>  <Source Description>  (332) 
Scientific Literature

>  <Document Journal>  (332) 
Eur J Med Chem

>  <Document Year>  (332) 
2020.0

>  <Active>  (332) 
1.0

>  <bits>  (332) 
<rdkit.DataStructs.cDataStructs.ExplicitBitVect object at 0x00000159F543F370>

>  <Group>  (332) 
G2

$$$$

     RDKit          2D

 35 39  0  0  0  0  0  0  0  0999 V2000
    3.7500   -1.2990    0.0000 C   0  0  0  0  0  0  0  0  0  0  0  0
    3.0000    0.0000    0.0000 O   0  0  0  0  0  0  0  0  0  0  0  0
    1.5000    0.0000    0.0000 C   0  0  0  0  0  0  0  0  0  0  0  0
    0.7500   -1.2990    0.0000 C   0  0  0  0  0  0  0  0  0  0  0  0
   -0.7500   -1.2990    0.0000 C   0  0  0  0  0  0  0  0  0  0  0  0
   -1.5000    0.0000    0.0000 C   0  0  0  0  0  0  0  0  0  0  0  0
   -2.9672    0.3119    0.0000 N   0  0  0  0  0  0  0  0  0  0  0  0
   -3.1240    1.8037    0.0000 C   0  0  0  0  0  0  0  0  0  0  0  0
   -1.7537    2.4138    0.0000 C   0  0  0  0  0  0  0  0  0  0  0  0
   -1.4418    3.8810    0.0000 C   0  0  0  0  0  0  0  0  0  0  0  0
   -2.5565    4.8847    0.0000 C   0  0  0  0  0  0  0  0  0  0  0  0
   -3.9831    4.4211    0.0000 O   0  0  0  0  0  0  0  0  0  0  0  0
   -2.2447    6.3519    0.0000 N   0  0  0  0  0  0  0  0  0  0  0  0
   -3.3594    7.3556    0.0000 C   0  0  0  0  0  0  0  0  0  0  0  0
   -3.0475    8.8228    0.0000 C   0  0  0  0  0  0  0  0  0  0  0  0
   -4.1622    9.8265    0.0000 N   0  0  0  0  0  0  0  0  0  0  0  0
   -5.5888    9.3630    0.0000 C   0  0  0  0  0  0  0  0  0  0  0  0
   -5.9007    7.8958    0.0000 C   0  0  0  0  0  0  0  0  0  0  0  0
   -7.3273    7.4322    0.0000 C   0  0  0  0  0  0  0  0  0  0  0  0
   -7.6391    5.9650    0.0000 O   0  0  0  0  0  0  0  0  0  0  0  0
   -8.4420    8.4359    0.0000 C   0  0  0  0  0  0  0  0  0  0  0  0
   -8.2852    9.9277    0.0000 C   0  0  0  0  0  0  0  0  0  0  0  0
   -9.6555   10.5378    0.0000 N   0  0  0  0  0  0  0  0  0  0  0  0
   -9.9674   12.0050    0.0000 C   0  0  0  0  0  0  0  0  0  0  0  0
   -8.8527   13.0087    0.0000 C   0  0  0  0  0  0  0  0  0  0  0  0
  -11.3940   12.4686    0.0000 C   0  0  0  0  0  0  0  0  0  0  0  0
  -10.6592    9.4231    0.0000 C   0  0  0  0  0  0  0  0  0  0  0  0
  -12.1592    9.4231    0.0000 N   0  0  0  0  0  0  0  0  0  0  0  0
  -12.9092    8.1241    0.0000 C   0  0  0  0  0  0  0  0  0  0  0  0
  -12.1592    6.8250    0.0000 N   0  0  0  0  0  0  0  0  0  0  0  0
  -10.6592    6.8250    0.0000 C   0  0  0  0  0  0  0  0  0  0  0  0
   -9.9092    8.1241    0.0000 C   0  0  0  0  0  0  0  0  0  0  0  0
   -4.7860    6.8921    0.0000 C   0  0  0  0  0  0  0  0  0  0  0  0
   -0.7500    1.2990    0.0000 C   0  0  0  0  0  0  0  0  0  0  0  0
    0.7500    1.2990    0.0000 C   0  0  0  0  0  0  0  0  0  0  0  0
  1  2  1  0
  2  3  1  0
  3  4  2  0
  4  5  1  0
  5  6  2  0
  6  7  1  0
  7  8  1  0
  8  9  2  0
  9 10  1  0
 10 11  1  0
 11 12  2  0
 11 13  1  0
 13 14  1  0
 14 15  2  0
 15 16  1  0
 16 17  2  0
 17 18  1  0
 18 19  1  0
 19 20  2  0
 19 21  1  0
 21 22  2  0
 22 23  1  0
 23 24  1  0
 24 25  1  0
 24 26  1  0
 23 27  1  0
 27 28  2  0
 28 29  1  0
 29 30  2  0
 30 31  1  0
 31 32  2  0
 18 33  2  0
  9 34  1  0
 34 35  2  0
 35  3  1  0
 34  6  1  0
 33 14  1  0
 32 21  1  0
 32 27  1  0
M  END
>  <Compound_ID>  (333) 
CHEMBL3661511

>  <Molecule Name>  (333) 
nan

>  <Molecular Weight>  (333) 
468.52

>  <AlogP>  (333) 
4.31

>  <Smiles>  (333) 
COc1ccc2[nH]cc(CC(=O)Nc3cncc(C(=O)c4cn(C(C)C)c5ncncc45)c3)c2c1

>  <Standard Type>  (333) 
IC50

>  <Standard Relation>  (333) 
'='

>  <Standard Units>  (333) 
nM

>  <Standard Value>  (333) 
68.4

>  <Assay ChEMBL ID>  (333) 
CHEMBL3887033

>  <Assay Description>  (333) 
Enzyme Assay: Isolated TRK Enzyme assays use the HTRF KinEASE-TK kit (Cisbio Cat# 62TK0PEJ) with recombinant His-tagged cytoplasmic domains of each TRK receptor sourced from Invitrogen (see table below). This activity-assay measures the phosphorylation of tyrosine residues within a substrate from the HTRF kit which has been validated by Cisbio for a variety of tyrosine kinases including the TRK receptors. Assay details: Target:TRKA; Invitrogen Cat# PV3144; Amino acids:aa 441-796; FAC enzyme:4nM; FAC ATP:40uM; Assay Reaction Time:35min.

>  <BAO Format ID>  (333) 
BAO_0000357

>  <BAO Label>  (333) 
single protein format

>  <Assay Organism>  (333) 
None

>  <Target ChEMBL ID>  (333) 
CHEMBL2815

>  <Target Name>  (333) 
Nerve growth factor receptor Trk-A

>  <Target Organism>  (333) 
Homo sapiens

>  <Target Type>  (333) 
SINGLE PROTEIN

>  <Document ChEMBL ID>  (333) 
CHEMBL3639348

>  <Source Description>  (333) 
BindingDB Database

>  <Document Journal>  (333) 
nan

>  <Document Year>  (333) 
2014.0

>  <Active>  (333) 
1.0

>  <bits>  (333) 
<rdkit.DataStructs.cDataStructs.ExplicitBitVect object at 0x00000159F543EDC0>

>  <Group>  (333) 
G2

$$$$

     RDKit          2D

 29 32  0  0  0  0  0  0  0  0999 V2000
   -6.1170   -7.0506    0.0000 C   0  0  0  0  0  0  0  0  0  0  0  0
   -4.6904   -6.5871    0.0000 N   0  0  0  0  0  0  0  0  0  0  0  0
   -4.3786   -5.1199    0.0000 C   0  0  0  0  0  0  0  0  0  0  0  0
   -5.4933   -4.1162    0.0000 O   0  0  0  0  0  0  0  0  0  0  0  0
   -2.9520   -4.6564    0.0000 C   0  0  0  0  0  0  0  0  0  0  0  0
   -1.8373   -5.6601    0.0000 O   0  0  0  0  0  0  0  0  0  0  0  0
   -2.6401   -3.1891    0.0000 N   0  0  0  0  0  0  0  0  0  0  0  0
   -1.2135   -2.7256    0.0000 C   0  0  0  0  0  0  0  0  0  0  0  0
   -0.0000   -3.6073    0.0000 C   0  0  0  0  0  0  0  0  0  0  0  0
    1.2135   -2.7256    0.0000 N   0  0  0  0  0  0  0  0  0  0  0  0
    0.7500   -1.2990    0.0000 N   0  0  0  0  0  0  0  0  0  0  0  0
    1.5000    0.0000    0.0000 C   0  0  0  0  0  0  0  0  0  0  0  0
    0.7500    1.2990    0.0000 C   0  0  0  0  0  0  0  0  0  0  0  0
   -0.7500    1.2990    0.0000 C   0  0  0  0  0  0  0  0  0  0  0  0
   -1.5000    2.5981    0.0000 N   0  0  0  0  0  0  0  0  0  0  0  0
   -2.9918    2.7549    0.0000 C   0  0  0  0  0  0  0  0  0  0  0  0
   -3.3037    4.2221    0.0000 C   0  0  0  0  0  0  0  0  0  0  0  0
   -2.0046    4.9721    0.0000 C   0  0  0  0  0  0  0  0  0  0  0  0
   -0.8899    3.9684    0.0000 C   0  0  0  0  0  0  0  0  0  0  0  0
    0.5773    4.2803    0.0000 C   0  0  0  0  0  0  0  0  0  0  0  0
    1.5810    3.1655    0.0000 C   0  0  0  0  0  0  0  0  0  0  0  0
    3.0482    3.4774    0.0000 C   0  0  0  0  0  0  0  0  0  0  0  0
    4.0519    2.3627    0.0000 F   0  0  0  0  0  0  0  0  0  0  0  0
    3.5118    4.9040    0.0000 C   0  0  0  0  0  0  0  0  0  0  0  0
    2.5081    6.0187    0.0000 C   0  0  0  0  0  0  0  0  0  0  0  0
    1.0409    5.7068    0.0000 C   0  0  0  0  0  0  0  0  0  0  0  0
    0.0372    6.8216    0.0000 F   0  0  0  0  0  0  0  0  0  0  0  0
   -1.5000    0.0000    0.0000 N   0  0  0  0  0  0  0  0  0  0  0  0
   -0.7500   -1.2990    0.0000 C   0  0  0  0  0  0  0  0  0  0  0  0
  1  2  1  0
  2  3  1  0
  3  4  2  0
  3  5  1  0
  5  6  2  0
  5  7  1  0
  7  8  1  0
  8  9  1  0
  9 10  2  0
 10 11  1  0
 11 12  1  0
 12 13  2  0
 13 14  1  0
 14 15  1  0
 15 16  1  0
 16 17  1  0
 17 18  1  0
 18 19  1  0
 19 20  1  6
 20 21  2  0
 21 22  1  0
 22 23  1  0
 22 24  2  0
 24 25  1  0
 25 26  2  0
 26 27  1  0
 14 28  2  0
 28 29  1  0
 29  8  2  0
 29 11  1  0
 19 15  1  0
 26 20  1  0
M  END
>  <Compound_ID>  (334) 
CHEMBL4109041

>  <Molecule Name>  (334) 
nan

>  <Molecular Weight>  (334) 
400.39

>  <AlogP>  (334) 
2.03

>  <Smiles>  (334) 
CNC(=O)C(=O)Nc1cnn2ccc(N3CCC[C@@H]3c3cc(F)ccc3F)nc12

>  <Standard Type>  (334) 
IC50

>  <Standard Relation>  (334) 
'='

>  <Standard Units>  (334) 
nM

>  <Standard Value>  (334) 
7.65

>  <Assay ChEMBL ID>  (334) 
CHEMBL3887076

>  <Assay Description>  (334) 
ELISA Assay: An enzyme-linked immunosorbant assay (ELISA) was used to assess TrkA kinase activity in the presence of inhibitors. Immulon 4HBX 384-well microtiter plates (Thermo part #8755) were coated with a 0.025 mg/mL solution of poly (Glu, Ala, Tyr; 6:3:1; Sigma P3899). Various concentrations of test compound, 2.5 nM TrkA (Invitrogen Corp., histidine-tagged recombinant human TrkA, cytoplasmic domain), and 500 uM ATP were incubated for 25 minutes at ambient temperature in the coated plates while shaking. The assay buffer consisted of 25 mM MOPS pH 7.5, 0.005% (v/v) Triton X-100 and 5 mM MgCl2. The reaction mixture was removed from the plate by washing with PBS containing 0.1% (v/v) Tween 20. The phosphorylated reaction product was detected using 0.2 ug/mL of a phosphotyrosine specific monoclonal antibody (clone PY20) conjugated to horseradish peroxidase in conjunction with the TMB Peroxidase Substrate System (KPL).

>  <BAO Format ID>  (334) 
BAO_0000357

>  <BAO Label>  (334) 
single protein format

>  <Assay Organism>  (334) 
None

>  <Target ChEMBL ID>  (334) 
CHEMBL2815

>  <Target Name>  (334) 
Nerve growth factor receptor Trk-A

>  <Target Organism>  (334) 
Homo sapiens

>  <Target Type>  (334) 
SINGLE PROTEIN

>  <Document ChEMBL ID>  (334) 
CHEMBL3886151

>  <Source Description>  (334) 
BindingDB Database

>  <Document Journal>  (334) 
nan

>  <Document Year>  (334) 
2014.0

>  <Active>  (334) 
1.0

>  <bits>  (334) 
<rdkit.DataStructs.cDataStructs.ExplicitBitVect object at 0x00000159F543F4C0>

>  <Group>  (334) 
G2

$$$$

     RDKit          2D

 34 37  0  0  0  0  0  0  0  0999 V2000
  -13.1172   -2.4957    0.0000 C   0  0  0  0  0  0  0  0  0  0  0  0
  -12.0025   -3.4994    0.0000 C   0  0  0  0  0  0  0  0  0  0  0  0
  -10.5759   -3.0359    0.0000 C   0  0  0  0  0  0  0  0  0  0  0  0
   -9.4612   -4.0396    0.0000 C   0  0  0  0  0  0  0  0  0  0  0  0
   -9.7730   -5.5068    0.0000 C   0  0  0  0  0  0  0  0  0  0  0  0
   -8.6583   -6.5105    0.0000 C   0  0  0  0  0  0  0  0  0  0  0  0
   -7.2317   -6.0469    0.0000 C   0  0  0  0  0  0  0  0  0  0  0  0
   -6.9199   -4.5797    0.0000 O   0  0  0  0  0  0  0  0  0  0  0  0
   -6.1170   -7.0506    0.0000 N   0  0  0  0  0  0  0  0  0  0  0  0
   -4.6904   -6.5871    0.0000 C   0  0  0  0  0  0  0  0  0  0  0  0
   -3.5757   -7.5908    0.0000 C   0  0  0  0  0  0  0  0  0  0  0  0
   -2.1491   -7.1273    0.0000 N   0  0  0  0  0  0  0  0  0  0  0  0
   -1.8373   -5.6601    0.0000 C   0  0  0  0  0  0  0  0  0  0  0  0
   -2.9520   -4.6564    0.0000 C   0  0  0  0  0  0  0  0  0  0  0  0
   -2.6401   -3.1891    0.0000 C   0  0  0  0  0  0  0  0  0  0  0  0
   -3.7548   -2.1855    0.0000 O   0  0  0  0  0  0  0  0  0  0  0  0
   -1.2135   -2.7256    0.0000 C   0  0  0  0  0  0  0  0  0  0  0  0
   -0.0000   -3.6073    0.0000 C   0  0  0  0  0  0  0  0  0  0  0  0
    1.2135   -2.7256    0.0000 N   0  0  0  0  0  0  0  0  0  0  0  0
    2.6401   -3.1891    0.0000 C   0  0  0  0  0  0  0  0  0  0  0  0
    2.1766   -4.6157    0.0000 C   0  0  0  0  0  0  0  0  0  0  0  0
    3.1036   -1.7626    0.0000 C   0  0  0  0  0  0  0  0  0  0  0  0
    4.0667   -3.6527    0.0000 C   0  0  0  0  0  0  0  0  0  0  0  0
    5.1814   -2.6490    0.0000 O   0  0  0  0  0  0  0  0  0  0  0  0
    0.7500   -1.2990    0.0000 C   0  0  0  0  0  0  0  0  0  0  0  0
    1.5000    0.0000    0.0000 N   0  0  0  0  0  0  0  0  0  0  0  0
    0.7500    1.2990    0.0000 C   0  0  0  0  0  0  0  0  0  0  0  0
    1.5000    2.5981    0.0000 N   0  0  0  0  0  0  0  0  0  0  0  0
   -0.7500    1.2990    0.0000 N   0  0  0  0  0  0  0  0  0  0  0  0
   -1.5000    0.0000    0.0000 C   0  0  0  0  0  0  0  0  0  0  0  0
   -0.7500   -1.2990    0.0000 C   0  0  0  0  0  0  0  0  0  0  0  0
   -4.3786   -5.1199    0.0000 C   0  0  0  0  0  0  0  0  0  0  0  0
  -11.1996   -5.9703    0.0000 N   0  0  0  0  0  0  0  0  0  0  0  0
  -12.3143   -4.9666    0.0000 C   0  0  0  0  0  0  0  0  0  0  0  0
  1  2  1  0
  2  3  2  0
  3  4  1  0
  4  5  2  0
  5  6  1  0
  6  7  1  0
  7  8  2  0
  7  9  1  0
  9 10  1  0
 10 11  2  0
 11 12  1  0
 12 13  2  0
 13 14  1  0
 14 15  1  0
 15 16  2  0
 15 17  1  0
 17 18  2  0
 18 19  1  0
 19 20  1  0
 20 21  1  0
 20 22  1  0
 20 23  1  0
 23 24  1  0
 19 25  1  0
 25 26  2  0
 26 27  1  0
 27 28  1  0
 27 29  2  0
 29 30  1  0
 30 31  2  0
 14 32  2  0
  5 33  1  0
 33 34  2  0
 34  2  1  0
 32 10  1  0
 31 17  1  0
 31 25  1  0
M  END
>  <Compound_ID>  (335) 
CHEMBL3671430

>  <Molecule Name>  (335) 
nan

>  <Molecular Weight>  (335) 
459.51

>  <AlogP>  (335) 
2.25

>  <Smiles>  (335) 
Cc1ccc(CC(=O)Nc2cncc(C(=O)c3cn(C(C)(C)CO)c4nc(N)ncc34)c2)nc1

>  <Standard Type>  (335) 
IC50

>  <Standard Relation>  (335) 
'='

>  <Standard Units>  (335) 
nM

>  <Standard Value>  (335) 
3.16

>  <Assay ChEMBL ID>  (335) 
CHEMBL3887033

>  <Assay Description>  (335) 
Enzyme Assay: Isolated TRK Enzyme assays use the HTRF KinEASE-TK kit (Cisbio Cat# 62TK0PEJ) with recombinant His-tagged cytoplasmic domains of each TRK receptor sourced from Invitrogen (see table below). This activity-assay measures the phosphorylation of tyrosine residues within a substrate from the HTRF kit which has been validated by Cisbio for a variety of tyrosine kinases including the TRK receptors. Assay details: Target:TRKA; Invitrogen Cat# PV3144; Amino acids:aa 441-796; FAC enzyme:4nM; FAC ATP:40uM; Assay Reaction Time:35min.

>  <BAO Format ID>  (335) 
BAO_0000357

>  <BAO Label>  (335) 
single protein format

>  <Assay Organism>  (335) 
None

>  <Target ChEMBL ID>  (335) 
CHEMBL2815

>  <Target Name>  (335) 
Nerve growth factor receptor Trk-A

>  <Target Organism>  (335) 
Homo sapiens

>  <Target Type>  (335) 
SINGLE PROTEIN

>  <Document ChEMBL ID>  (335) 
CHEMBL3639348

>  <Source Description>  (335) 
BindingDB Database

>  <Document Journal>  (335) 
nan

>  <Document Year>  (335) 
2014.0

>  <Active>  (335) 
1.0

>  <bits>  (335) 
<rdkit.DataStructs.cDataStructs.ExplicitBitVect object at 0x00000159F543FD10>

>  <Group>  (335) 
G2

$$$$

     RDKit          2D

 33 37  0  0  0  0  0  0  0  0999 V2000
   -8.4190   -4.5274    0.0000 C   0  0  0  0  0  0  0  0  0  0  0  0
   -6.9199   -4.5797    0.0000 C   0  0  0  0  0  0  0  0  0  0  0  0
   -7.1286   -3.0943    0.0000 C   0  0  0  0  0  0  0  0  0  0  0  0
   -5.4933   -4.1162    0.0000 C   0  0  0  0  0  0  0  0  0  0  0  0
   -4.3786   -5.1199    0.0000 N   0  0  0  0  0  0  0  0  0  0  0  0
   -2.9520   -4.6564    0.0000 C   0  0  0  0  0  0  0  0  0  0  0  0
   -1.8373   -5.6601    0.0000 O   0  0  0  0  0  0  0  0  0  0  0  0
   -2.6401   -3.1891    0.0000 N   0  0  0  0  0  0  0  0  0  0  0  0
   -1.2135   -2.7256    0.0000 C   0  0  0  0  0  0  0  0  0  0  0  0
   -0.0000   -3.6073    0.0000 C   0  0  0  0  0  0  0  0  0  0  0  0
    1.2135   -2.7256    0.0000 N   0  0  0  0  0  0  0  0  0  0  0  0
    0.7500   -1.2990    0.0000 C   0  0  0  0  0  0  0  0  0  0  0  0
    1.5000    0.0000    0.0000 C   0  0  0  0  0  0  0  0  0  0  0  0
    0.7500    1.2990    0.0000 C   0  0  0  0  0  0  0  0  0  0  0  0
   -0.7500    1.2990    0.0000 C   0  0  0  0  0  0  0  0  0  0  0  0
   -1.5000    2.5981    0.0000 N   0  0  0  0  0  0  0  0  0  0  0  0
   -2.9918    2.7549    0.0000 C   0  0  0  0  0  0  0  0  0  0  0  0
   -3.3037    4.2221    0.0000 C   0  0  0  0  0  0  0  0  0  0  0  0
   -2.0046    4.9721    0.0000 C   0  0  0  0  0  0  0  0  0  0  0  0
   -0.8899    3.9684    0.0000 C   0  0  0  0  0  0  0  0  0  0  0  0
    0.5773    4.2803    0.0000 C   0  0  0  0  0  0  0  0  0  0  0  0
    1.5810    3.1655    0.0000 C   0  0  0  0  0  0  0  0  0  0  0  0
    3.0482    3.4774    0.0000 C   0  0  0  0  0  0  0  0  0  0  0  0
    4.0519    2.3627    0.0000 F   0  0  0  0  0  0  0  0  0  0  0  0
    3.5118    4.9040    0.0000 C   0  0  0  0  0  0  0  0  0  0  0  0
    2.5081    6.0187    0.0000 C   0  0  0  0  0  0  0  0  0  0  0  0
    1.0409    5.7068    0.0000 C   0  0  0  0  0  0  0  0  0  0  0  0
    0.0372    6.8216    0.0000 F   0  0  0  0  0  0  0  0  0  0  0  0
   -1.5000    0.0000    0.0000 N   0  0  0  0  0  0  0  0  0  0  0  0
   -0.7500   -1.2990    0.0000 N   0  0  0  0  0  0  0  0  0  0  0  0
   -4.6904   -6.5871    0.0000 C   0  0  0  0  0  0  0  0  0  0  0  0
   -6.1170   -7.0506    0.0000 C   0  0  0  0  0  0  0  0  0  0  0  0
   -7.2317   -6.0469    0.0000 N   0  0  0  0  0  0  0  0  0  0  0  0
  1  2  1  0
  2  3  1  0
  2  4  1  0
  4  5  1  0
  5  6  1  0
  6  7  2  0
  6  8  1  0
  8  9  1  0
  9 10  2  0
 10 11  1  0
 11 12  2  0
 12 13  1  0
 13 14  2  0
 14 15  1  0
 15 16  1  0
 16 17  1  0
 17 18  1  0
 18 19  1  0
 19 20  1  0
 20 21  1  6
 21 22  2  0
 22 23  1  0
 23 24  1  0
 23 25  2  0
 25 26  1  0
 26 27  2  0
 27 28  1  0
 15 29  2  0
 29 30  1  0
  5 31  1  0
 31 32  1  0
 32 33  1  0
 33  2  1  0
 30  9  1  0
 30 12  1  0
 20 16  1  0
 27 21  1  0
M  END
>  <Compound_ID>  (336) 
CHEMBL4110537

>  <Molecule Name>  (336) 
nan

>  <Molecular Weight>  (336) 
455.51

>  <AlogP>  (336) 
3.56

>  <Smiles>  (336) 
CC1(C)CN(C(=O)Nc2cnc3ccc(N4CCC[C@@H]4c4cc(F)ccc4F)nn23)CCN1

>  <Standard Type>  (336) 
IC50

>  <Standard Relation>  (336) 
'='

>  <Standard Units>  (336) 
nM

>  <Standard Value>  (336) 
60.6

>  <Assay ChEMBL ID>  (336) 
CHEMBL3887826

>  <Assay Description>  (336) 
ELISA Assay: An enzyme-linked immunosorbant assay (ELISA) was used to assess TrkA kinase activity in the presence of inhibitors. Immulon 4HBX 384-well microtiter plates (Thermo part #8755) were coated with a 0.025 mg/mL solution of poly (Glu, Ala, Tyr; 6:3:1; Sigma P3899). Various concentrations of test compound, 2.5 nM TrkA (Invitrogen Corp., histidine-tagged recombinant human TrkA, cytoplasmic domain), and 500 uM ATP were incubated for 25 minutes at ambient temperature in the coated plates while shaking. The assay buffer consisted of 25 mM MOPS pH 7.5, 0.005% (v/v) Triton X-100 and 5 mM MgCl2. The reaction mixture was removed from the plate by washing with PBS containing 0.1% (v/v) Tween 20. The phosphorylated reaction product was detected using 0.2 ug/mL of a phosphotyrosine specific monoclonal antibody (clone PY20) conjugated to horseradish peroxidase in conjunction with the TMB Peroxidase Substrate System (KPL).

>  <BAO Format ID>  (336) 
BAO_0000357

>  <BAO Label>  (336) 
single protein format

>  <Assay Organism>  (336) 
None

>  <Target ChEMBL ID>  (336) 
CHEMBL2815

>  <Target Name>  (336) 
Nerve growth factor receptor Trk-A

>  <Target Organism>  (336) 
Homo sapiens

>  <Target Type>  (336) 
SINGLE PROTEIN

>  <Document ChEMBL ID>  (336) 
CHEMBL3886465

>  <Source Description>  (336) 
BindingDB Database

>  <Document Journal>  (336) 
nan

>  <Document Year>  (336) 
2016.0

>  <Active>  (336) 
1.0

>  <bits>  (336) 
<rdkit.DataStructs.cDataStructs.ExplicitBitVect object at 0x00000159F543C5F0>

>  <Group>  (336) 
G2

$$$$

     RDKit          2D

 32 35  0  0  0  0  0  0  0  0999 V2000
   -6.7407   -9.9851    0.0000 C   0  0  0  0  0  0  0  0  0  0  0  0
   -6.4289   -8.5179    0.0000 S   0  0  0  0  0  0  0  0  0  0  0  0
   -4.9617   -8.8297    0.0000 O   0  0  0  0  0  0  0  0  0  0  0  0
   -7.8961   -8.2060    0.0000 O   0  0  0  0  0  0  0  0  0  0  0  0
   -6.1170   -7.0506    0.0000 N   0  0  0  0  0  0  0  0  0  0  0  0
   -4.6904   -6.5871    0.0000 C   0  0  0  0  0  0  0  0  0  0  0  0
   -4.3786   -5.1199    0.0000 C   0  0  0  0  0  0  0  0  0  0  0  0
   -2.9520   -4.6564    0.0000 N   0  0  0  0  0  0  0  0  0  0  0  0
   -2.6401   -3.1891    0.0000 C   0  0  0  0  0  0  0  0  0  0  0  0
   -3.7548   -2.1855    0.0000 O   0  0  0  0  0  0  0  0  0  0  0  0
   -1.2135   -2.7256    0.0000 C   0  0  0  0  0  0  0  0  0  0  0  0
   -0.0000   -3.6073    0.0000 C   0  0  0  0  0  0  0  0  0  0  0  0
    1.2135   -2.7256    0.0000 N   0  0  0  0  0  0  0  0  0  0  0  0
    0.7500   -1.2990    0.0000 N   0  0  0  0  0  0  0  0  0  0  0  0
    1.5000    0.0000    0.0000 C   0  0  0  0  0  0  0  0  0  0  0  0
    0.7500    1.2990    0.0000 C   0  0  0  0  0  0  0  0  0  0  0  0
   -0.7500    1.2990    0.0000 C   0  0  0  0  0  0  0  0  0  0  0  0
   -1.5000    2.5981    0.0000 N   0  0  0  0  0  0  0  0  0  0  0  0
   -2.9918    2.7549    0.0000 C   0  0  0  0  0  0  0  0  0  0  0  0
   -3.3037    4.2221    0.0000 C   0  0  0  0  0  0  0  0  0  0  0  0
   -2.0046    4.9721    0.0000 C   0  0  0  0  0  0  0  0  0  0  0  0
   -0.8899    3.9684    0.0000 C   0  0  0  0  0  0  0  0  0  0  0  0
    0.5773    4.2803    0.0000 C   0  0  0  0  0  0  0  0  0  0  0  0
    1.5810    3.1655    0.0000 C   0  0  0  0  0  0  0  0  0  0  0  0
    3.0482    3.4774    0.0000 C   0  0  0  0  0  0  0  0  0  0  0  0
    4.0519    2.3627    0.0000 F   0  0  0  0  0  0  0  0  0  0  0  0
    3.5118    4.9040    0.0000 C   0  0  0  0  0  0  0  0  0  0  0  0
    2.5081    6.0187    0.0000 C   0  0  0  0  0  0  0  0  0  0  0  0
    1.0409    5.7068    0.0000 C   0  0  0  0  0  0  0  0  0  0  0  0
    0.0372    6.8216    0.0000 F   0  0  0  0  0  0  0  0  0  0  0  0
   -1.5000    0.0000    0.0000 N   0  0  0  0  0  0  0  0  0  0  0  0
   -0.7500   -1.2990    0.0000 C   0  0  0  0  0  0  0  0  0  0  0  0
  1  2  1  0
  2  3  2  0
  2  4  2  0
  2  5  1  0
  5  6  1  0
  6  7  1  0
  7  8  1  0
  8  9  1  0
  9 10  2  0
  9 11  1  0
 11 12  1  0
 12 13  2  0
 13 14  1  0
 14 15  1  0
 15 16  2  0
 16 17  1  0
 17 18  1  0
 18 19  1  0
 19 20  1  0
 20 21  1  0
 21 22  1  0
 22 23  1  0
 23 24  2  0
 24 25  1  0
 25 26  1  0
 25 27  2  0
 27 28  1  0
 28 29  2  0
 29 30  1  0
 17 31  2  0
 31 32  1  0
 32 11  2  0
 32 14  1  0
 22 18  1  0
 29 23  1  0
M  END
>  <Compound_ID>  (337) 
CHEMBL3675924

>  <Molecule Name>  (337) 
nan

>  <Molecular Weight>  (337) 
464.5

>  <AlogP>  (337) 
1.63

>  <Smiles>  (337) 
CS(=O)(=O)NCCNC(=O)c1cnn2ccc(N3CCCC3c3cc(F)ccc3F)nc12

>  <Standard Type>  (337) 
IC50

>  <Standard Relation>  (337) 
'='

>  <Standard Units>  (337) 
nM

>  <Standard Value>  (337) 
3.3

>  <Assay ChEMBL ID>  (337) 
CHEMBL3887070

>  <Assay Description>  (337) 
ELISA Assay: An enzyme-linked immunosorbant assay (ELISA) was used to assess TrkA kinase activity in the presence of inhibitors. Immulon 4HBX 384-well microtiter plates (Thermo part #8755) were coated with a 0.025 mg/mL solution of poly (Glu, Ala, Tyr; 6:3:1; Sigma P3899). Various concentrations of test compound, 2.5 nM TrkA (Invitrogen Corp., histidine-tagged recombinant human TrkA, cytoplasmic domain), and 500 uM ATP were incubated for 25 minutes at ambient temperature in the coated plates while shaking The assay buffer consisted of 25 mM MOPS pH 7.5, 0.005% (v/v) Triton X-100 and 5 mM MgCl2. The reaction mixture was removed from the plate by washing with PBS containing 0.1% (v/v) Tween 20. The phosphorylated reaction product was detected using 0.2 ug/mL of a phosphotyrosine specific monoclonal antibody (clone PY20) conjugated to horseradish peroxidase in conjunction with the TMB Peroxidase Substrate System (KPL).

>  <BAO Format ID>  (337) 
BAO_0000357

>  <BAO Label>  (337) 
single protein format

>  <Assay Organism>  (337) 
None

>  <Target ChEMBL ID>  (337) 
CHEMBL2815

>  <Target Name>  (337) 
Nerve growth factor receptor Trk-A

>  <Target Organism>  (337) 
Homo sapiens

>  <Target Type>  (337) 
SINGLE PROTEIN

>  <Document ChEMBL ID>  (337) 
CHEMBL3638907

>  <Source Description>  (337) 
BindingDB Database

>  <Document Journal>  (337) 
nan

>  <Document Year>  (337) 
2014.0

>  <Active>  (337) 
1.0

>  <bits>  (337) 
<rdkit.DataStructs.cDataStructs.ExplicitBitVect object at 0x00000159F543E570>

>  <Group>  (337) 
G2

$$$$

     RDKit          2D

 25 28  0  0  0  0  0  0  0  0999 V2000
   -4.3786   -5.1199    0.0000 C   0  0  0  0  0  0  0  0  0  0  0  0
   -2.9520   -4.6564    0.0000 N   0  0  0  0  0  0  0  0  0  0  0  0
   -2.6401   -3.1891    0.0000 C   0  0  0  0  0  0  0  0  0  0  0  0
   -3.7548   -2.1855    0.0000 O   0  0  0  0  0  0  0  0  0  0  0  0
   -1.2135   -2.7256    0.0000 C   0  0  0  0  0  0  0  0  0  0  0  0
   -0.0000   -3.6073    0.0000 C   0  0  0  0  0  0  0  0  0  0  0  0
    1.2135   -2.7256    0.0000 N   0  0  0  0  0  0  0  0  0  0  0  0
    0.7500   -1.2990    0.0000 N   0  0  0  0  0  0  0  0  0  0  0  0
    1.5000    0.0000    0.0000 C   0  0  0  0  0  0  0  0  0  0  0  0
    0.7500    1.2990    0.0000 C   0  0  0  0  0  0  0  0  0  0  0  0
   -0.7500    1.2990    0.0000 C   0  0  0  0  0  0  0  0  0  0  0  0
   -1.5000    2.5981    0.0000 N   0  0  0  0  0  0  0  0  0  0  0  0
   -2.9918    2.7549    0.0000 C   0  0  0  0  0  0  0  0  0  0  0  0
   -3.3037    4.2221    0.0000 C   0  0  0  0  0  0  0  0  0  0  0  0
   -2.0046    4.9721    0.0000 C   0  0  0  0  0  0  0  0  0  0  0  0
   -0.8899    3.9684    0.0000 C   0  0  0  0  0  0  0  0  0  0  0  0
    0.5773    4.2803    0.0000 C   0  0  0  0  0  0  0  0  0  0  0  0
    1.5810    3.1655    0.0000 C   0  0  0  0  0  0  0  0  0  0  0  0
    3.0482    3.4774    0.0000 N   0  0  0  0  0  0  0  0  0  0  0  0
    3.5118    4.9040    0.0000 C   0  0  0  0  0  0  0  0  0  0  0  0
    2.5081    6.0187    0.0000 C   0  0  0  0  0  0  0  0  0  0  0  0
    2.9716    7.4453    0.0000 F   0  0  0  0  0  0  0  0  0  0  0  0
    1.0409    5.7068    0.0000 C   0  0  0  0  0  0  0  0  0  0  0  0
   -1.5000    0.0000    0.0000 N   0  0  0  0  0  0  0  0  0  0  0  0
   -0.7500   -1.2990    0.0000 C   0  0  0  0  0  0  0  0  0  0  0  0
  1  2  1  0
  2  3  1  0
  3  4  2  0
  3  5  1  0
  5  6  1  0
  6  7  2  0
  7  8  1  0
  8  9  1  0
  9 10  2  0
 10 11  1  0
 11 12  1  0
 12 13  1  0
 13 14  1  0
 14 15  1  0
 15 16  1  0
 16 17  1  0
 17 18  2  0
 18 19  1  0
 19 20  2  0
 20 21  1  0
 21 22  1  0
 21 23  2  0
 11 24  2  0
 24 25  1  0
 25  5  2  0
 25  8  1  0
 16 12  1  0
 23 17  1  0
M  END
>  <Compound_ID>  (338) 
CHEMBL3675988

>  <Molecule Name>  (338) 
nan

>  <Molecular Weight>  (338) 
340.36

>  <AlogP>  (338) 
1.96

>  <Smiles>  (338) 
CNC(=O)c1cnn2ccc(N3CCCC3c3cncc(F)c3)nc12

>  <Standard Type>  (338) 
IC50

>  <Standard Relation>  (338) 
'='

>  <Standard Units>  (338) 
nM

>  <Standard Value>  (338) 
29.9

>  <Assay ChEMBL ID>  (338) 
CHEMBL3887070

>  <Assay Description>  (338) 
ELISA Assay: An enzyme-linked immunosorbant assay (ELISA) was used to assess TrkA kinase activity in the presence of inhibitors. Immulon 4HBX 384-well microtiter plates (Thermo part #8755) were coated with a 0.025 mg/mL solution of poly (Glu, Ala, Tyr; 6:3:1; Sigma P3899). Various concentrations of test compound, 2.5 nM TrkA (Invitrogen Corp., histidine-tagged recombinant human TrkA, cytoplasmic domain), and 500 uM ATP were incubated for 25 minutes at ambient temperature in the coated plates while shaking The assay buffer consisted of 25 mM MOPS pH 7.5, 0.005% (v/v) Triton X-100 and 5 mM MgCl2. The reaction mixture was removed from the plate by washing with PBS containing 0.1% (v/v) Tween 20. The phosphorylated reaction product was detected using 0.2 ug/mL of a phosphotyrosine specific monoclonal antibody (clone PY20) conjugated to horseradish peroxidase in conjunction with the TMB Peroxidase Substrate System (KPL).

>  <BAO Format ID>  (338) 
BAO_0000357

>  <BAO Label>  (338) 
single protein format

>  <Assay Organism>  (338) 
None

>  <Target ChEMBL ID>  (338) 
CHEMBL2815

>  <Target Name>  (338) 
Nerve growth factor receptor Trk-A

>  <Target Organism>  (338) 
Homo sapiens

>  <Target Type>  (338) 
SINGLE PROTEIN

>  <Document ChEMBL ID>  (338) 
CHEMBL3638907

>  <Source Description>  (338) 
BindingDB Database

>  <Document Journal>  (338) 
nan

>  <Document Year>  (338) 
2014.0

>  <Active>  (338) 
1.0

>  <bits>  (338) 
<rdkit.DataStructs.cDataStructs.ExplicitBitVect object at 0x00000159F543D850>

>  <Group>  (338) 
G2

$$$$

     RDKit          2D

 30 33  0  0  0  0  0  0  0  0999 V2000
   -3.2232   -6.8990    0.0000 C   0  0  0  0  0  0  0  0  0  0  0  0
   -4.6904   -6.5871    0.0000 C   0  0  0  0  0  0  0  0  0  0  0  0
   -6.1577   -6.2752    0.0000 C   0  0  0  0  0  0  0  0  0  0  0  0
   -5.0023   -8.0543    0.0000 C   0  0  0  0  0  0  0  0  0  0  0  0
   -3.8876   -9.0580    0.0000 O   0  0  0  0  0  0  0  0  0  0  0  0
   -4.3786   -5.1199    0.0000 C   0  0  0  0  0  0  0  0  0  0  0  0
   -2.9520   -4.6564    0.0000 N   0  0  0  0  0  0  0  0  0  0  0  0
   -2.6401   -3.1891    0.0000 C   0  0  0  0  0  0  0  0  0  0  0  0
   -3.7548   -2.1855    0.0000 O   0  0  0  0  0  0  0  0  0  0  0  0
   -1.2135   -2.7256    0.0000 C   0  0  0  0  0  0  0  0  0  0  0  0
   -0.0000   -3.6073    0.0000 C   0  0  0  0  0  0  0  0  0  0  0  0
    1.2135   -2.7256    0.0000 N   0  0  0  0  0  0  0  0  0  0  0  0
    0.7500   -1.2990    0.0000 N   0  0  0  0  0  0  0  0  0  0  0  0
    1.5000    0.0000    0.0000 C   0  0  0  0  0  0  0  0  0  0  0  0
    0.7500    1.2990    0.0000 C   0  0  0  0  0  0  0  0  0  0  0  0
   -0.7500    1.2990    0.0000 C   0  0  0  0  0  0  0  0  0  0  0  0
   -1.5000    2.5981    0.0000 N   0  0  0  0  0  0  0  0  0  0  0  0
   -2.9918    2.7549    0.0000 C   0  0  0  0  0  0  0  0  0  0  0  0
   -3.3037    4.2221    0.0000 C   0  0  0  0  0  0  0  0  0  0  0  0
   -2.0046    4.9721    0.0000 C   0  0  0  0  0  0  0  0  0  0  0  0
   -0.8899    3.9684    0.0000 C   0  0  0  0  0  0  0  0  0  0  0  0
    0.5773    4.2803    0.0000 C   0  0  0  0  0  0  0  0  0  0  0  0
    1.5810    3.1655    0.0000 C   0  0  0  0  0  0  0  0  0  0  0  0
    3.0482    3.4774    0.0000 N   0  0  0  0  0  0  0  0  0  0  0  0
    3.5118    4.9040    0.0000 C   0  0  0  0  0  0  0  0  0  0  0  0
    2.5081    6.0187    0.0000 C   0  0  0  0  0  0  0  0  0  0  0  0
    2.9716    7.4453    0.0000 F   0  0  0  0  0  0  0  0  0  0  0  0
    1.0409    5.7068    0.0000 C   0  0  0  0  0  0  0  0  0  0  0  0
   -1.5000    0.0000    0.0000 N   0  0  0  0  0  0  0  0  0  0  0  0
   -0.7500   -1.2990    0.0000 C   0  0  0  0  0  0  0  0  0  0  0  0
  1  2  1  0
  2  3  1  0
  2  4  1  0
  4  5  1  0
  2  6  1  0
  6  7  1  0
  7  8  1  0
  8  9  2  0
  8 10  1  0
 10 11  1  0
 11 12  2  0
 12 13  1  0
 13 14  1  0
 14 15  2  0
 15 16  1  0
 16 17  1  0
 17 18  1  0
 18 19  1  0
 19 20  1  0
 20 21  1  0
 21 22  1  6
 22 23  2  0
 23 24  1  0
 24 25  2  0
 25 26  1  0
 26 27  1  0
 26 28  2  0
 16 29  2  0
 29 30  1  0
 30 10  2  0
 30 13  1  0
 21 17  1  0
 28 22  1  0
M  END
>  <Compound_ID>  (339) 
CHEMBL3675999

>  <Molecule Name>  (339) 
nan

>  <Molecular Weight>  (339) 
412.47

>  <AlogP>  (339) 
2.35

>  <Smiles>  (339) 
CC(C)(CO)CNC(=O)c1cnn2ccc(N3CCC[C@@H]3c3cncc(F)c3)nc12

>  <Standard Type>  (339) 
IC50

>  <Standard Relation>  (339) 
'='

>  <Standard Units>  (339) 
nM

>  <Standard Value>  (339) 
12.8

>  <Assay ChEMBL ID>  (339) 
CHEMBL3887070

>  <Assay Description>  (339) 
ELISA Assay: An enzyme-linked immunosorbant assay (ELISA) was used to assess TrkA kinase activity in the presence of inhibitors. Immulon 4HBX 384-well microtiter plates (Thermo part #8755) were coated with a 0.025 mg/mL solution of poly (Glu, Ala, Tyr; 6:3:1; Sigma P3899). Various concentrations of test compound, 2.5 nM TrkA (Invitrogen Corp., histidine-tagged recombinant human TrkA, cytoplasmic domain), and 500 uM ATP were incubated for 25 minutes at ambient temperature in the coated plates while shaking The assay buffer consisted of 25 mM MOPS pH 7.5, 0.005% (v/v) Triton X-100 and 5 mM MgCl2. The reaction mixture was removed from the plate by washing with PBS containing 0.1% (v/v) Tween 20. The phosphorylated reaction product was detected using 0.2 ug/mL of a phosphotyrosine specific monoclonal antibody (clone PY20) conjugated to horseradish peroxidase in conjunction with the TMB Peroxidase Substrate System (KPL).

>  <BAO Format ID>  (339) 
BAO_0000357

>  <BAO Label>  (339) 
single protein format

>  <Assay Organism>  (339) 
None

>  <Target ChEMBL ID>  (339) 
CHEMBL2815

>  <Target Name>  (339) 
Nerve growth factor receptor Trk-A

>  <Target Organism>  (339) 
Homo sapiens

>  <Target Type>  (339) 
SINGLE PROTEIN

>  <Document ChEMBL ID>  (339) 
CHEMBL3638907

>  <Source Description>  (339) 
BindingDB Database

>  <Document Journal>  (339) 
nan

>  <Document Year>  (339) 
2014.0

>  <Active>  (339) 
1.0

>  <bits>  (339) 
<rdkit.DataStructs.cDataStructs.ExplicitBitVect object at 0x00000159F543FE60>

>  <Group>  (339) 
G2

$$$$

     RDKit          2D

 29 32  0  0  0  0  0  0  0  0999 V2000
   -3.7548   -2.1855    0.0000 O   0  0  0  0  0  0  0  0  0  0  0  0
   -2.6401   -3.1891    0.0000 C   0  0  0  0  0  0  0  0  0  0  0  0
   -2.9520   -4.6564    0.0000 N   0  0  0  0  0  0  0  0  0  0  0  0
   -4.3786   -5.1199    0.0000 C   0  0  0  0  0  0  0  0  0  0  0  0
   -4.6904   -6.5871    0.0000 C   0  0  0  0  0  0  0  0  0  0  0  0
   -5.0023   -8.0543    0.0000 F   0  0  0  0  0  0  0  0  0  0  0  0
   -6.1577   -6.2752    0.0000 F   0  0  0  0  0  0  0  0  0  0  0  0
   -3.2232   -6.8990    0.0000 F   0  0  0  0  0  0  0  0  0  0  0  0
   -1.2135   -2.7256    0.0000 C   0  0  0  0  0  0  0  0  0  0  0  0
   -0.0000   -3.6073    0.0000 C   0  0  0  0  0  0  0  0  0  0  0  0
    1.2135   -2.7256    0.0000 N   0  0  0  0  0  0  0  0  0  0  0  0
    0.7500   -1.2990    0.0000 N   0  0  0  0  0  0  0  0  0  0  0  0
    1.5000    0.0000    0.0000 C   0  0  0  0  0  0  0  0  0  0  0  0
    0.7500    1.2990    0.0000 C   0  0  0  0  0  0  0  0  0  0  0  0
   -0.7500    1.2990    0.0000 C   0  0  0  0  0  0  0  0  0  0  0  0
   -1.5000    2.5981    0.0000 N   0  0  0  0  0  0  0  0  0  0  0  0
   -2.9918    2.7549    0.0000 C   0  0  0  0  0  0  0  0  0  0  0  0
   -3.3037    4.2221    0.0000 C   0  0  0  0  0  0  0  0  0  0  0  0
   -2.0046    4.9721    0.0000 C   0  0  0  0  0  0  0  0  0  0  0  0
   -0.8899    3.9684    0.0000 C   0  0  0  0  0  0  0  0  0  0  0  0
    0.5773    4.2803    0.0000 C   0  0  0  0  0  0  0  0  0  0  0  0
    1.5810    3.1655    0.0000 C   0  0  0  0  0  0  0  0  0  0  0  0
    3.0482    3.4774    0.0000 N   0  0  0  0  0  0  0  0  0  0  0  0
    3.5118    4.9040    0.0000 C   0  0  0  0  0  0  0  0  0  0  0  0
    2.5081    6.0187    0.0000 C   0  0  0  0  0  0  0  0  0  0  0  0
    2.9716    7.4453    0.0000 F   0  0  0  0  0  0  0  0  0  0  0  0
    1.0409    5.7068    0.0000 C   0  0  0  0  0  0  0  0  0  0  0  0
   -1.5000    0.0000    0.0000 N   0  0  0  0  0  0  0  0  0  0  0  0
   -0.7500   -1.2990    0.0000 C   0  0  0  0  0  0  0  0  0  0  0  0
  1  2  2  0
  2  3  1  0
  3  4  1  0
  4  5  1  0
  5  6  1  0
  5  7  1  0
  5  8  1  0
  2  9  1  0
  9 10  1  0
 10 11  2  0
 11 12  1  0
 12 13  1  0
 13 14  2  0
 14 15  1  0
 15 16  1  0
 16 17  1  0
 17 18  1  0
 18 19  1  0
 19 20  1  0
 20 21  1  6
 21 22  2  0
 22 23  1  0
 23 24  2  0
 24 25  1  0
 25 26  1  0
 25 27  2  0
 15 28  2  0
 28 29  1  0
 29  9  2  0
 29 12  1  0
 20 16  1  0
 27 21  1  0
M  END
>  <Compound_ID>  (340) 
CHEMBL3676005

>  <Molecule Name>  (340) 
nan

>  <Molecular Weight>  (340) 
408.36

>  <AlogP>  (340) 
2.9

>  <Smiles>  (340) 
O=C(NCC(F)(F)F)c1cnn2ccc(N3CCC[C@@H]3c3cncc(F)c3)nc12

>  <Standard Type>  (340) 
IC50

>  <Standard Relation>  (340) 
'='

>  <Standard Units>  (340) 
nM

>  <Standard Value>  (340) 
5.0

>  <Assay ChEMBL ID>  (340) 
CHEMBL3887070

>  <Assay Description>  (340) 
ELISA Assay: An enzyme-linked immunosorbant assay (ELISA) was used to assess TrkA kinase activity in the presence of inhibitors. Immulon 4HBX 384-well microtiter plates (Thermo part #8755) were coated with a 0.025 mg/mL solution of poly (Glu, Ala, Tyr; 6:3:1; Sigma P3899). Various concentrations of test compound, 2.5 nM TrkA (Invitrogen Corp., histidine-tagged recombinant human TrkA, cytoplasmic domain), and 500 uM ATP were incubated for 25 minutes at ambient temperature in the coated plates while shaking The assay buffer consisted of 25 mM MOPS pH 7.5, 0.005% (v/v) Triton X-100 and 5 mM MgCl2. The reaction mixture was removed from the plate by washing with PBS containing 0.1% (v/v) Tween 20. The phosphorylated reaction product was detected using 0.2 ug/mL of a phosphotyrosine specific monoclonal antibody (clone PY20) conjugated to horseradish peroxidase in conjunction with the TMB Peroxidase Substrate System (KPL).

>  <BAO Format ID>  (340) 
BAO_0000357

>  <BAO Label>  (340) 
single protein format

>  <Assay Organism>  (340) 
None

>  <Target ChEMBL ID>  (340) 
CHEMBL2815

>  <Target Name>  (340) 
Nerve growth factor receptor Trk-A

>  <Target Organism>  (340) 
Homo sapiens

>  <Target Type>  (340) 
SINGLE PROTEIN

>  <Document ChEMBL ID>  (340) 
CHEMBL3638907

>  <Source Description>  (340) 
BindingDB Database

>  <Document Journal>  (340) 
nan

>  <Document Year>  (340) 
2014.0

>  <Active>  (340) 
1.0

>  <bits>  (340) 
<rdkit.DataStructs.cDataStructs.ExplicitBitVect object at 0x00000159F543F0D0>

>  <Group>  (340) 
G2

$$$$

     RDKit          2D

 35 38  0  0  0  0  0  0  0  0999 V2000
   -2.9520   -4.6564    0.0000 C   0  0  0  0  0  0  0  0  0  0  0  0
   -2.6401   -3.1891    0.0000 C   0  0  0  0  0  0  0  0  0  0  0  0
   -3.7548   -2.1855    0.0000 C   0  0  0  0  0  0  0  0  0  0  0  0
   -1.2135   -2.7256    0.0000 N   0  0  0  0  0  0  0  0  0  0  0  0
   -0.0000   -3.6073    0.0000 C   0  0  0  0  0  0  0  0  0  0  0  0
    1.2135   -2.7256    0.0000 C   0  0  0  0  0  0  0  0  0  0  0  0
    2.6401   -3.1891    0.0000 C   0  0  0  0  0  0  0  0  0  0  0  0
    3.7548   -2.1855    0.0000 O   0  0  0  0  0  0  0  0  0  0  0  0
    2.9520   -4.6564    0.0000 C   0  0  0  0  0  0  0  0  0  0  0  0
    1.8373   -5.6601    0.0000 C   0  0  0  0  0  0  0  0  0  0  0  0
    2.1491   -7.1273    0.0000 N   0  0  0  0  0  0  0  0  0  0  0  0
    3.5757   -7.5908    0.0000 C   0  0  0  0  0  0  0  0  0  0  0  0
    4.6904   -6.5871    0.0000 C   0  0  0  0  0  0  0  0  0  0  0  0
    6.1170   -7.0506    0.0000 N   0  0  0  0  0  0  0  0  0  0  0  0
    6.4289   -8.5179    0.0000 C   0  0  0  0  0  0  0  0  0  0  0  0
    5.3142   -9.5216    0.0000 O   0  0  0  0  0  0  0  0  0  0  0  0
    7.8555   -8.9814    0.0000 C   0  0  0  0  0  0  0  0  0  0  0  0
    8.1673  -10.4486    0.0000 C   0  0  0  0  0  0  0  0  0  0  0  0
    7.0526  -11.4523    0.0000 C   0  0  0  0  0  0  0  0  0  0  0  0
    7.3645  -12.9195    0.0000 C   0  0  0  0  0  0  0  0  0  0  0  0
    8.7911  -13.3831    0.0000 C   0  0  0  0  0  0  0  0  0  0  0  0
    9.9058  -12.3794    0.0000 C   0  0  0  0  0  0  0  0  0  0  0  0
   11.3324  -12.8429    0.0000 C   0  0  0  0  0  0  0  0  0  0  0  0
   12.7590  -13.3064    0.0000 F   0  0  0  0  0  0  0  0  0  0  0  0
   10.8688  -14.2695    0.0000 F   0  0  0  0  0  0  0  0  0  0  0  0
   11.7959  -11.4163    0.0000 F   0  0  0  0  0  0  0  0  0  0  0  0
    9.5939  -10.9121    0.0000 C   0  0  0  0  0  0  0  0  0  0  0  0
    4.3786   -5.1199    0.0000 C   0  0  0  0  0  0  0  0  0  0  0  0
    0.7500   -1.2990    0.0000 C   0  0  0  0  0  0  0  0  0  0  0  0
    1.5000    0.0000    0.0000 C   0  0  0  0  0  0  0  0  0  0  0  0
    0.7500    1.2990    0.0000 N   0  0  0  0  0  0  0  0  0  0  0  0
   -0.7500    1.2990    0.0000 C   0  0  0  0  0  0  0  0  0  0  0  0
   -1.5000    2.5981    0.0000 N   0  0  0  0  0  0  0  0  0  0  0  0
   -1.5000    0.0000    0.0000 N   0  0  0  0  0  0  0  0  0  0  0  0
   -0.7500   -1.2990    0.0000 C   0  0  0  0  0  0  0  0  0  0  0  0
  1  2  1  0
  2  3  1  0
  2  4  1  0
  4  5  1  0
  5  6  2  0
  6  7  1  0
  7  8  2  0
  7  9  1  0
  9 10  2  0
 10 11  1  0
 11 12  2  0
 12 13  1  0
 13 14  1  0
 14 15  1  0
 15 16  2  0
 15 17  1  0
 17 18  1  0
 18 19  2  0
 19 20  1  0
 20 21  2  0
 21 22  1  0
 22 23  1  0
 23 24  1  0
 23 25  1  0
 23 26  1  0
 22 27  2  0
 13 28  2  0
  6 29  1  0
 29 30  2  0
 30 31  1  0
 31 32  2  0
 32 33  1  0
 32 34  1  0
 34 35  2  0
 35  4  1  0
 28  9  1  0
 35 29  1  0
 27 18  1  0
M  END
>  <Compound_ID>  (341) 
CHEMBL3666249

>  <Molecule Name>  (341) 
nan

>  <Molecular Weight>  (341) 
482.47

>  <AlogP>  (341) 
4.42

>  <Smiles>  (341) 
CC(C)n1cc(C(=O)c2cncc(NC(=O)Cc3cccc(C(F)(F)F)c3)c2)c2cnc(N)nc21

>  <Standard Type>  (341) 
IC50

>  <Standard Relation>  (341) 
'='

>  <Standard Units>  (341) 
nM

>  <Standard Value>  (341) 
4.7

>  <Assay ChEMBL ID>  (341) 
CHEMBL3887033

>  <Assay Description>  (341) 
Enzyme Assay: Isolated TRK Enzyme assays use the HTRF KinEASE-TK kit (Cisbio Cat# 62TK0PEJ) with recombinant His-tagged cytoplasmic domains of each TRK receptor sourced from Invitrogen (see table below). This activity-assay measures the phosphorylation of tyrosine residues within a substrate from the HTRF kit which has been validated by Cisbio for a variety of tyrosine kinases including the TRK receptors. Assay details: Target:TRKA; Invitrogen Cat# PV3144; Amino acids:aa 441-796; FAC enzyme:4nM; FAC ATP:40uM; Assay Reaction Time:35min.

>  <BAO Format ID>  (341) 
BAO_0000357

>  <BAO Label>  (341) 
single protein format

>  <Assay Organism>  (341) 
None

>  <Target ChEMBL ID>  (341) 
CHEMBL2815

>  <Target Name>  (341) 
Nerve growth factor receptor Trk-A

>  <Target Organism>  (341) 
Homo sapiens

>  <Target Type>  (341) 
SINGLE PROTEIN

>  <Document ChEMBL ID>  (341) 
CHEMBL3639348

>  <Source Description>  (341) 
BindingDB Database

>  <Document Journal>  (341) 
nan

>  <Document Year>  (341) 
2014.0

>  <Active>  (341) 
1.0

>  <bits>  (341) 
<rdkit.DataStructs.cDataStructs.ExplicitBitVect object at 0x00000159F543CB30>

>  <Group>  (341) 
G2

$$$$

     RDKit          2D

 33 36  0  0  0  0  0  0  0  0999 V2000
   -2.6401   -3.1891    0.0000 C   0  0  0  0  0  0  0  0  0  0  0  0
   -1.2135   -2.7256    0.0000 N   0  0  0  0  0  0  0  0  0  0  0  0
   -0.0000   -3.6073    0.0000 C   0  0  0  0  0  0  0  0  0  0  0  0
    1.2135   -2.7256    0.0000 C   0  0  0  0  0  0  0  0  0  0  0  0
    2.6401   -3.1891    0.0000 C   0  0  0  0  0  0  0  0  0  0  0  0
    3.7548   -2.1855    0.0000 O   0  0  0  0  0  0  0  0  0  0  0  0
    2.9520   -4.6564    0.0000 C   0  0  0  0  0  0  0  0  0  0  0  0
    1.8373   -5.6601    0.0000 C   0  0  0  0  0  0  0  0  0  0  0  0
    2.1491   -7.1273    0.0000 N   0  0  0  0  0  0  0  0  0  0  0  0
    3.5757   -7.5908    0.0000 C   0  0  0  0  0  0  0  0  0  0  0  0
    4.6904   -6.5871    0.0000 C   0  0  0  0  0  0  0  0  0  0  0  0
    6.1170   -7.0506    0.0000 N   0  0  0  0  0  0  0  0  0  0  0  0
    6.4289   -8.5179    0.0000 C   0  0  0  0  0  0  0  0  0  0  0  0
    5.3142   -9.5216    0.0000 O   0  0  0  0  0  0  0  0  0  0  0  0
    7.8555   -8.9814    0.0000 C   0  0  0  0  0  0  0  0  0  0  0  0
    8.1673  -10.4486    0.0000 C   0  0  0  0  0  0  0  0  0  0  0  0
    7.0526  -11.4523    0.0000 C   0  0  0  0  0  0  0  0  0  0  0  0
    7.3645  -12.9195    0.0000 C   0  0  0  0  0  0  0  0  0  0  0  0
    8.7911  -13.3831    0.0000 C   0  0  0  0  0  0  0  0  0  0  0  0
    9.9058  -12.3794    0.0000 C   0  0  0  0  0  0  0  0  0  0  0  0
   11.3324  -12.8429    0.0000 S   0  0  0  0  0  0  0  0  0  0  0  0
   11.6442  -14.3101    0.0000 C   0  0  0  0  0  0  0  0  0  0  0  0
   13.1115  -13.9982    0.0000 F   0  0  0  0  0  0  0  0  0  0  0  0
   10.1770  -14.6220    0.0000 F   0  0  0  0  0  0  0  0  0  0  0  0
   11.9561  -15.7773    0.0000 F   0  0  0  0  0  0  0  0  0  0  0  0
    9.5939  -10.9121    0.0000 C   0  0  0  0  0  0  0  0  0  0  0  0
    4.3786   -5.1199    0.0000 C   0  0  0  0  0  0  0  0  0  0  0  0
    0.7500   -1.2990    0.0000 C   0  0  0  0  0  0  0  0  0  0  0  0
    1.5000    0.0000    0.0000 C   0  0  0  0  0  0  0  0  0  0  0  0
    0.7500    1.2990    0.0000 N   0  0  0  0  0  0  0  0  0  0  0  0
   -0.7500    1.2990    0.0000 C   0  0  0  0  0  0  0  0  0  0  0  0
   -1.5000    0.0000    0.0000 N   0  0  0  0  0  0  0  0  0  0  0  0
   -0.7500   -1.2990    0.0000 C   0  0  0  0  0  0  0  0  0  0  0  0
  1  2  1  0
  2  3  1  0
  3  4  2  0
  4  5  1  0
  5  6  2  0
  5  7  1  0
  7  8  2  0
  8  9  1  0
  9 10  2  0
 10 11  1  0
 11 12  1  0
 12 13  1  0
 13 14  2  0
 13 15  1  0
 15 16  1  0
 16 17  2  0
 17 18  1  0
 18 19  2  0
 19 20  1  0
 20 21  1  0
 21 22  1  0
 22 23  1  0
 22 24  1  0
 22 25  1  0
 20 26  2  0
 11 27  2  0
  4 28  1  0
 28 29  2  0
 29 30  1  0
 30 31  2  0
 31 32  1  0
 32 33  2  0
 33  2  1  0
 27  7  1  0
 33 28  1  0
 26 16  1  0
M  END
>  <Compound_ID>  (342) 
CHEMBL3661579

>  <Molecule Name>  (342) 
nan

>  <Molecular Weight>  (342) 
471.46

>  <AlogP>  (342) 
4.39

>  <Smiles>  (342) 
Cn1cc(C(=O)c2cncc(NC(=O)Cc3cccc(SC(F)(F)F)c3)c2)c2cncnc21

>  <Standard Type>  (342) 
IC50

>  <Standard Relation>  (342) 
'='

>  <Standard Units>  (342) 
nM

>  <Standard Value>  (342) 
67.4

>  <Assay ChEMBL ID>  (342) 
CHEMBL3887033

>  <Assay Description>  (342) 
Enzyme Assay: Isolated TRK Enzyme assays use the HTRF KinEASE-TK kit (Cisbio Cat# 62TK0PEJ) with recombinant His-tagged cytoplasmic domains of each TRK receptor sourced from Invitrogen (see table below). This activity-assay measures the phosphorylation of tyrosine residues within a substrate from the HTRF kit which has been validated by Cisbio for a variety of tyrosine kinases including the TRK receptors. Assay details: Target:TRKA; Invitrogen Cat# PV3144; Amino acids:aa 441-796; FAC enzyme:4nM; FAC ATP:40uM; Assay Reaction Time:35min.

>  <BAO Format ID>  (342) 
BAO_0000357

>  <BAO Label>  (342) 
single protein format

>  <Assay Organism>  (342) 
None

>  <Target ChEMBL ID>  (342) 
CHEMBL2815

>  <Target Name>  (342) 
Nerve growth factor receptor Trk-A

>  <Target Organism>  (342) 
Homo sapiens

>  <Target Type>  (342) 
SINGLE PROTEIN

>  <Document ChEMBL ID>  (342) 
CHEMBL3639348

>  <Source Description>  (342) 
BindingDB Database

>  <Document Journal>  (342) 
nan

>  <Document Year>  (342) 
2014.0

>  <Active>  (342) 
1.0

>  <bits>  (342) 
<rdkit.DataStructs.cDataStructs.ExplicitBitVect object at 0x00000159F543FF40>

>  <Group>  (342) 
G2

$$$$

     RDKit          2D

 28 31  0  0  0  0  0  0  0  0999 V2000
   -4.6904   -6.5871    0.0000 C   0  0  0  0  0  0  0  0  0  0  0  0
   -4.3786   -5.1199    0.0000 N   0  0  0  0  0  0  0  0  0  0  0  0
   -5.4933   -4.1162    0.0000 C   0  0  0  0  0  0  0  0  0  0  0  0
   -2.9520   -4.6564    0.0000 C   0  0  0  0  0  0  0  0  0  0  0  0
   -1.8373   -5.6601    0.0000 O   0  0  0  0  0  0  0  0  0  0  0  0
   -2.6401   -3.1891    0.0000 N   0  0  0  0  0  0  0  0  0  0  0  0
   -1.2135   -2.7256    0.0000 C   0  0  0  0  0  0  0  0  0  0  0  0
   -0.0000   -3.6073    0.0000 C   0  0  0  0  0  0  0  0  0  0  0  0
    1.2135   -2.7256    0.0000 N   0  0  0  0  0  0  0  0  0  0  0  0
    0.7500   -1.2990    0.0000 C   0  0  0  0  0  0  0  0  0  0  0  0
    1.5000    0.0000    0.0000 C   0  0  0  0  0  0  0  0  0  0  0  0
    0.7500    1.2990    0.0000 C   0  0  0  0  0  0  0  0  0  0  0  0
   -0.7500    1.2990    0.0000 C   0  0  0  0  0  0  0  0  0  0  0  0
   -1.5000    2.5981    0.0000 N   0  0  0  0  0  0  0  0  0  0  0  0
   -2.9918    2.7549    0.0000 C   0  0  0  0  0  0  0  0  0  0  0  0
   -3.3037    4.2221    0.0000 C   0  0  0  0  0  0  0  0  0  0  0  0
   -2.0046    4.9721    0.0000 C   0  0  0  0  0  0  0  0  0  0  0  0
   -0.8899    3.9684    0.0000 C   0  0  0  0  0  0  0  0  0  0  0  0
    0.5773    4.2803    0.0000 C   0  0  0  0  0  0  0  0  0  0  0  0
    1.5810    3.1655    0.0000 C   0  0  0  0  0  0  0  0  0  0  0  0
    3.0482    3.4774    0.0000 C   0  0  0  0  0  0  0  0  0  0  0  0
    4.0519    2.3627    0.0000 F   0  0  0  0  0  0  0  0  0  0  0  0
    3.5118    4.9040    0.0000 C   0  0  0  0  0  0  0  0  0  0  0  0
    2.5081    6.0187    0.0000 C   0  0  0  0  0  0  0  0  0  0  0  0
    1.0409    5.7068    0.0000 C   0  0  0  0  0  0  0  0  0  0  0  0
    0.0372    6.8216    0.0000 F   0  0  0  0  0  0  0  0  0  0  0  0
   -1.5000    0.0000    0.0000 N   0  0  0  0  0  0  0  0  0  0  0  0
   -0.7500   -1.2990    0.0000 N   0  0  0  0  0  0  0  0  0  0  0  0
  1  2  1  0
  2  3  1  0
  2  4  1  0
  4  5  2  0
  4  6  1  0
  6  7  1  0
  7  8  2  0
  8  9  1  0
  9 10  2  0
 10 11  1  0
 11 12  2  0
 12 13  1  0
 13 14  1  0
 14 15  1  0
 15 16  1  0
 16 17  1  0
 17 18  1  0
 18 19  1  6
 19 20  2  0
 20 21  1  0
 21 22  1  0
 21 23  2  0
 23 24  1  0
 24 25  2  0
 25 26  1  0
 13 27  2  0
 27 28  1  0
 28  7  1  0
 28 10  1  0
 18 14  1  0
 25 19  1  0
M  END
>  <Compound_ID>  (343) 
CHEMBL4111294

>  <Molecule Name>  (343) 
nan

>  <Molecular Weight>  (343) 
386.41

>  <AlogP>  (343) 
3.44

>  <Smiles>  (343) 
CN(C)C(=O)Nc1cnc2ccc(N3CCC[C@@H]3c3cc(F)ccc3F)nn12

>  <Standard Type>  (343) 
IC50

>  <Standard Relation>  (343) 
'='

>  <Standard Units>  (343) 
nM

>  <Standard Value>  (343) 
18.0

>  <Assay ChEMBL ID>  (343) 
CHEMBL3887826

>  <Assay Description>  (343) 
ELISA Assay: An enzyme-linked immunosorbant assay (ELISA) was used to assess TrkA kinase activity in the presence of inhibitors. Immulon 4HBX 384-well microtiter plates (Thermo part #8755) were coated with a 0.025 mg/mL solution of poly (Glu, Ala, Tyr; 6:3:1; Sigma P3899). Various concentrations of test compound, 2.5 nM TrkA (Invitrogen Corp., histidine-tagged recombinant human TrkA, cytoplasmic domain), and 500 uM ATP were incubated for 25 minutes at ambient temperature in the coated plates while shaking. The assay buffer consisted of 25 mM MOPS pH 7.5, 0.005% (v/v) Triton X-100 and 5 mM MgCl2. The reaction mixture was removed from the plate by washing with PBS containing 0.1% (v/v) Tween 20. The phosphorylated reaction product was detected using 0.2 ug/mL of a phosphotyrosine specific monoclonal antibody (clone PY20) conjugated to horseradish peroxidase in conjunction with the TMB Peroxidase Substrate System (KPL).

>  <BAO Format ID>  (343) 
BAO_0000357

>  <BAO Label>  (343) 
single protein format

>  <Assay Organism>  (343) 
None

>  <Target ChEMBL ID>  (343) 
CHEMBL2815

>  <Target Name>  (343) 
Nerve growth factor receptor Trk-A

>  <Target Organism>  (343) 
Homo sapiens

>  <Target Type>  (343) 
SINGLE PROTEIN

>  <Document ChEMBL ID>  (343) 
CHEMBL3886465

>  <Source Description>  (343) 
BindingDB Database

>  <Document Journal>  (343) 
nan

>  <Document Year>  (343) 
2016.0

>  <Active>  (343) 
1.0

>  <bits>  (343) 
<rdkit.DataStructs.cDataStructs.ExplicitBitVect object at 0x00000159F543E260>

>  <Group>  (343) 
G2

$$$$

     RDKit          2D

 34 39  0  0  0  0  0  0  0  0999 V2000
    6.8083   -9.1942    0.0000 C   0  0  0  0  0  0  0  0  0  0  0  0
    6.0583   -7.8951    0.0000 C   0  0  0  0  0  0  0  0  0  0  0  0
    6.6684   -6.5248    0.0000 C   0  0  0  0  0  0  0  0  0  0  0  0
    5.5537   -5.5211    0.0000 N   0  0  0  0  0  0  0  0  0  0  0  0
    5.2418   -4.0539    0.0000 C   0  0  0  0  0  0  0  0  0  0  0  0
    3.7500   -3.8971    0.0000 C   0  0  0  0  0  0  0  0  0  0  0  0
    3.0000   -2.5981    0.0000 C   0  0  0  0  0  0  0  0  0  0  0  0
    1.5000   -2.5981    0.0000 N   0  0  0  0  0  0  0  0  0  0  0  0
    0.7500   -1.2990    0.0000 C   0  0  0  0  0  0  0  0  0  0  0  0
    1.5000    0.0000    0.0000 N   0  0  0  0  0  0  0  0  0  0  0  0
    0.7500    1.2990    0.0000 C   0  0  0  0  0  0  0  0  0  0  0  0
   -0.7500    1.2990    0.0000 N   0  0  0  0  0  0  0  0  0  0  0  0
   -1.5000    0.0000    0.0000 C   0  0  0  0  0  0  0  0  0  0  0  0
   -3.0000    0.0000    0.0000 C   0  0  0  0  0  0  0  0  0  0  0  0
   -3.7500   -1.2990    0.0000 C   0  0  0  0  0  0  0  0  0  0  0  0
   -3.0000   -2.5981    0.0000 C   0  0  0  0  0  0  0  0  0  0  0  0
   -3.7500   -3.8971    0.0000 N   0  0  0  0  0  0  0  0  0  0  0  0
   -3.1399   -5.2674    0.0000 C   0  0  0  0  0  0  0  0  0  0  0  0
   -4.2546   -6.2711    0.0000 C   0  0  0  0  0  0  0  0  0  0  0  0
   -5.5537   -5.5211    0.0000 C   0  0  0  0  0  0  0  0  0  0  0  0
   -5.2418   -4.0539    0.0000 C   0  0  0  0  0  0  0  0  0  0  0  0
   -6.2455   -2.9392    0.0000 C   0  0  0  0  0  0  0  0  0  0  0  0
   -5.7820   -1.5126    0.0000 C   0  0  0  0  0  0  0  0  0  0  0  0
   -6.7856   -0.3979    0.0000 C   0  0  0  0  0  0  0  0  0  0  0  0
   -6.3221    1.0287    0.0000 F   0  0  0  0  0  0  0  0  0  0  0  0
   -8.2529   -0.7098    0.0000 C   0  0  0  0  0  0  0  0  0  0  0  0
   -8.7164   -2.1363    0.0000 C   0  0  0  0  0  0  0  0  0  0  0  0
   -7.7127   -3.2511    0.0000 C   0  0  0  0  0  0  0  0  0  0  0  0
   -8.1762   -4.6776    0.0000 F   0  0  0  0  0  0  0  0  0  0  0  0
   -1.5000   -2.5981    0.0000 N   0  0  0  0  0  0  0  0  0  0  0  0
   -0.7500   -1.2990    0.0000 C   0  0  0  0  0  0  0  0  0  0  0  0
    3.1399   -5.2674    0.0000 N   0  0  0  0  0  0  0  0  0  0  0  0
    4.2546   -6.2711    0.0000 C   0  0  0  0  0  0  0  0  0  0  0  0
    4.5665   -7.7383    0.0000 S   0  0  0  0  0  0  0  0  0  0  0  0
  1  2  1  0
  2  3  2  0
  3  4  1  0
  4  5  1  0
  5  6  2  0
  6  7  1  0
  7  8  1  0
  8  9  1  0
  9 10  2  0
 10 11  1  0
 11 12  2  0
 12 13  1  0
 13 14  2  0
 14 15  1  0
 15 16  2  0
 16 17  1  0
 17 18  1  0
 18 19  1  0
 19 20  1  0
 20 21  1  0
 21 22  1  6
 22 23  2  0
 23 24  1  0
 24 25  1  0
 24 26  2  0
 26 27  1  0
 27 28  2  0
 28 29  1  0
 16 30  1  0
 30 31  2  0
  6 32  1  0
 32 33  2  0
 33 34  1  0
 34  2  1  0
 33  4  1  0
 31  9  1  0
 31 13  1  0
 21 17  1  0
 28 22  1  0
M  END
>  <Compound_ID>  (344) 
CHEMBL3298265

>  <Molecule Name>  (344) 
nan

>  <Molecular Weight>  (344) 
477.54

>  <AlogP>  (344) 
5.27

>  <Smiles>  (344) 
Cc1cn2cc(CNc3ncnc4ccc(N5CCC[C@@H]5c5cc(F)ccc5F)nc34)nc2s1

>  <Standard Type>  (344) 
IC50

>  <Standard Relation>  (344) 
'='

>  <Standard Units>  (344) 
nM

>  <Standard Value>  (344) 
13.0

>  <Assay ChEMBL ID>  (344) 
CHEMBL3299478

>  <Assay Description>  (344) 
Inhibition of phsophorylated TrkA (unknown origin) assessed as inhibition of fluorescently-labelled substrate phosphorylation by CALIPER enzymatic assay

>  <BAO Format ID>  (344) 
BAO_0000357

>  <BAO Label>  (344) 
single protein format

>  <Assay Organism>  (344) 
Homo sapiens

>  <Target ChEMBL ID>  (344) 
CHEMBL2815

>  <Target Name>  (344) 
Nerve growth factor receptor Trk-A

>  <Target Organism>  (344) 
Homo sapiens

>  <Target Type>  (344) 
SINGLE PROTEIN

>  <Document ChEMBL ID>  (344) 
CHEMBL3297676

>  <Source Description>  (344) 
Scientific Literature

>  <Document Journal>  (344) 
J Med Chem

>  <Document Year>  (344) 
2014.0

>  <Active>  (344) 
1.0

>  <bits>  (344) 
<rdkit.DataStructs.cDataStructs.ExplicitBitVect object at 0x00000159F543C0B0>

>  <Group>  (344) 
G2

$$$$

     RDKit          2D

 38 42  0  0  0  0  0  0  0  0999 V2000
    3.0000   -5.1962    0.0000 C   0  0  0  0  0  0  0  0  0  0  0  0
    1.5000   -5.1962    0.0000 C   0  0  0  0  0  0  0  0  0  0  0  0
    0.7500   -6.4952    0.0000 C   0  0  0  0  0  0  0  0  0  0  0  0
   -0.7500   -6.4952    0.0000 C   0  0  0  0  0  0  0  0  0  0  0  0
   -1.5000   -5.1962    0.0000 C   0  0  0  0  0  0  0  0  0  0  0  0
   -3.0000   -5.1962    0.0000 N   0  0  0  0  0  0  0  0  0  0  0  0
   -3.7500   -3.8971    0.0000 C   0  0  0  0  0  0  0  0  0  0  0  0
   -3.0000   -2.5981    0.0000 O   0  0  0  0  0  0  0  0  0  0  0  0
   -5.2500   -3.8971    0.0000 N   0  0  0  0  0  0  0  0  0  0  0  0
   -6.0000   -2.5981    0.0000 C   0  0  0  0  0  0  0  0  0  0  0  0
   -5.2500   -1.2990    0.0000 C   0  0  0  0  0  0  0  0  0  0  0  0
   -6.0000   -0.0000    0.0000 C   0  0  0  0  0  0  0  0  0  0  0  0
   -7.5000   -0.0000    0.0000 C   0  0  0  0  0  0  0  0  0  0  0  0
   -8.2500   -1.2990    0.0000 C   0  0  0  0  0  0  0  0  0  0  0  0
   -9.7500   -1.2990    0.0000 C   0  0  0  0  0  0  0  0  0  0  0  0
  -11.2500   -1.2990    0.0000 F   0  0  0  0  0  0  0  0  0  0  0  0
   -9.7500    0.2010    0.0000 F   0  0  0  0  0  0  0  0  0  0  0  0
   -9.7500   -2.7990    0.0000 F   0  0  0  0  0  0  0  0  0  0  0  0
   -7.5000   -2.5981    0.0000 C   0  0  0  0  0  0  0  0  0  0  0  0
   -0.7500   -3.8971    0.0000 C   0  0  0  0  0  0  0  0  0  0  0  0
    0.7500   -3.8971    0.0000 C   0  0  0  0  0  0  0  0  0  0  0  0
    1.5000   -2.5981    0.0000 N   0  0  0  0  0  0  0  0  0  0  0  0
    0.7500   -1.2990    0.0000 C   0  0  0  0  0  0  0  0  0  0  0  0
    1.5000    0.0000    0.0000 C   0  0  0  0  0  0  0  0  0  0  0  0
    0.7500    1.2990    0.0000 C   0  0  0  0  0  0  0  0  0  0  0  0
   -0.7500    1.2990    0.0000 C   0  0  0  0  0  0  0  0  0  0  0  0
   -1.5000    0.0000    0.0000 C   0  0  0  0  0  0  0  0  0  0  0  0
   -0.7500   -1.2990    0.0000 C   0  0  0  0  0  0  0  0  0  0  0  0
   -2.9672    0.3119    0.0000 N   0  0  0  0  0  0  0  0  0  0  0  0
   -3.1240    1.8037    0.0000 C   0  0  0  0  0  0  0  0  0  0  0  0
   -4.4231    2.5537    0.0000 O   0  0  0  0  0  0  0  0  0  0  0  0
   -1.7537    2.4138    0.0000 C   0  0  0  0  0  0  0  0  0  0  0  0
   -1.4418    3.8810    0.0000 C   0  0  0  0  0  0  0  0  0  0  0  0
   -2.5565    4.8847    0.0000 C   0  0  0  0  0  0  0  0  0  0  0  0
   -4.0238    4.5728    0.0000 C   0  0  0  0  0  0  0  0  0  0  0  0
   -4.7738    5.8718    0.0000 C   0  0  0  0  0  0  0  0  0  0  0  0
   -3.7701    6.9866    0.0000 C   0  0  0  0  0  0  0  0  0  0  0  0
   -2.3998    6.3765    0.0000 N   0  0  0  0  0  0  0  0  0  0  0  0
  1  2  1  0
  2  3  2  0
  3  4  1  0
  4  5  2  0
  5  6  1  0
  6  7  1  0
  7  8  2  0
  7  9  1  0
  9 10  1  0
 10 11  2  0
 11 12  1  0
 12 13  2  0
 13 14  1  0
 14 15  1  0
 15 16  1  0
 15 17  1  0
 15 18  1  0
 14 19  2  0
  5 20  1  0
 20 21  2  0
 21 22  1  0
 22 23  1  0
 23 24  2  0
 24 25  1  0
 25 26  2  0
 26 27  1  0
 27 28  2  0
 27 29  1  0
 29 30  1  0
 30 31  2  0
 30 32  1  0
 32 33  2  0
 33 34  1  0
 34 35  2  0
 35 36  1  0
 36 37  2  0
 37 38  1  0
 21  2  1  0
 28 23  1  0
 38 34  1  0
 19 10  1  0
 32 26  1  0
M  END
>  <Compound_ID>  (345) 
CHEMBL2037225

>  <Molecule Name>  (345) 
nan

>  <Molecular Weight>  (345) 
517.51

>  <AlogP>  (345) 
7.22

>  <Smiles>  (345) 
Cc1ccc(NC(=O)Nc2cccc(C(F)(F)F)c2)cc1Nc1ccc2c(c1)NC(=O)/C2=C\c1ccc[nH]1

>  <Standard Type>  (345) 
IC50

>  <Standard Relation>  (345) 
'='

>  <Standard Units>  (345) 
nM

>  <Standard Value>  (345) 
9.0

>  <Assay ChEMBL ID>  (345) 
CHEMBL2038860

>  <Assay Description>  (345) 
Inhibition of TRKA by HTRF assay

>  <BAO Format ID>  (345) 
BAO_0000357

>  <BAO Label>  (345) 
single protein format

>  <Assay Organism>  (345) 
None

>  <Target ChEMBL ID>  (345) 
CHEMBL2815

>  <Target Name>  (345) 
Nerve growth factor receptor Trk-A

>  <Target Organism>  (345) 
Homo sapiens

>  <Target Type>  (345) 
SINGLE PROTEIN

>  <Document ChEMBL ID>  (345) 
CHEMBL2034853

>  <Source Description>  (345) 
Scientific Literature

>  <Document Journal>  (345) 
ACS Med Chem Lett

>  <Document Year>  (345) 
2012.0

>  <Active>  (345) 
1.0

>  <bits>  (345) 
<rdkit.DataStructs.cDataStructs.ExplicitBitVect object at 0x00000159F543CBA0>

>  <Group>  (345) 
G2

$$$$

     RDKit          2D

 31 34  0  0  0  0  0  0  0  0999 V2000
  -12.8238   -4.5797    0.0000 C   0  0  0  0  0  0  0  0  0  0  0  0
  -12.5120   -6.0469    0.0000 C   0  0  0  0  0  0  0  0  0  0  0  0
  -13.6267   -7.0506    0.0000 C   0  0  0  0  0  0  0  0  0  0  0  0
  -11.0854   -6.5105    0.0000 N   0  0  0  0  0  0  0  0  0  0  0  0
  -10.6218   -7.9371    0.0000 C   0  0  0  0  0  0  0  0  0  0  0  0
   -9.1218   -7.9371    0.0000 N   0  0  0  0  0  0  0  0  0  0  0  0
   -8.6583   -6.5105    0.0000 C   0  0  0  0  0  0  0  0  0  0  0  0
   -7.2317   -6.0469    0.0000 C   0  0  0  0  0  0  0  0  0  0  0  0
   -6.9199   -4.5797    0.0000 O   0  0  0  0  0  0  0  0  0  0  0  0
   -6.1170   -7.0506    0.0000 N   0  0  0  0  0  0  0  0  0  0  0  0
   -4.6904   -6.5871    0.0000 C   0  0  0  0  0  0  0  0  0  0  0  0
   -3.5757   -7.5908    0.0000 C   0  0  0  0  0  0  0  0  0  0  0  0
   -2.1491   -7.1273    0.0000 N   0  0  0  0  0  0  0  0  0  0  0  0
   -1.8373   -5.6601    0.0000 C   0  0  0  0  0  0  0  0  0  0  0  0
   -2.9520   -4.6564    0.0000 C   0  0  0  0  0  0  0  0  0  0  0  0
   -2.6401   -3.1891    0.0000 C   0  0  0  0  0  0  0  0  0  0  0  0
   -3.7548   -2.1855    0.0000 O   0  0  0  0  0  0  0  0  0  0  0  0
   -1.2135   -2.7256    0.0000 C   0  0  0  0  0  0  0  0  0  0  0  0
   -0.0000   -3.6073    0.0000 C   0  0  0  0  0  0  0  0  0  0  0  0
    1.2135   -2.7256    0.0000 N   0  0  0  0  0  0  0  0  0  0  0  0
    2.6401   -3.1891    0.0000 C   0  0  0  0  0  0  0  0  0  0  0  0
    2.9520   -4.6564    0.0000 C   0  0  0  0  0  0  0  0  0  0  0  0
    3.7548   -2.1855    0.0000 C   0  0  0  0  0  0  0  0  0  0  0  0
    0.7500   -1.2990    0.0000 C   0  0  0  0  0  0  0  0  0  0  0  0
    1.5000    0.0000    0.0000 N   0  0  0  0  0  0  0  0  0  0  0  0
    0.7500    1.2990    0.0000 C   0  0  0  0  0  0  0  0  0  0  0  0
   -0.7500    1.2990    0.0000 N   0  0  0  0  0  0  0  0  0  0  0  0
   -1.5000    0.0000    0.0000 C   0  0  0  0  0  0  0  0  0  0  0  0
   -0.7500   -1.2990    0.0000 C   0  0  0  0  0  0  0  0  0  0  0  0
   -4.3786   -5.1199    0.0000 C   0  0  0  0  0  0  0  0  0  0  0  0
   -9.8718   -5.6288    0.0000 C   0  0  0  0  0  0  0  0  0  0  0  0
  1  2  1  0
  2  3  1  0
  2  4  1  0
  4  5  1  0
  5  6  2  0
  6  7  1  0
  7  8  1  0
  8  9  2  0
  8 10  1  0
 10 11  1  0
 11 12  2  0
 12 13  1  0
 13 14  2  0
 14 15  1  0
 15 16  1  0
 16 17  2  0
 16 18  1  0
 18 19  2  0
 19 20  1  0
 20 21  1  0
 21 22  1  0
 21 23  1  0
 20 24  1  0
 24 25  2  0
 25 26  1  0
 26 27  2  0
 27 28  1  0
 28 29  2  0
 15 30  2  0
  7 31  2  0
 31  4  1  0
 30 11  1  0
 29 18  1  0
 29 24  1  0
M  END
>  <Compound_ID>  (346) 
CHEMBL3666416

>  <Molecule Name>  (346) 
nan

>  <Molecular Weight>  (346) 
417.47

>  <AlogP>  (346) 
3.67

>  <Smiles>  (346) 
CC(C)n1cnc(C(=O)Nc2cncc(C(=O)c3cn(C(C)C)c4ncncc34)c2)c1

>  <Standard Type>  (346) 
IC50

>  <Standard Relation>  (346) 
'='

>  <Standard Units>  (346) 
nM

>  <Standard Value>  (346) 
99.9

>  <Assay ChEMBL ID>  (346) 
CHEMBL3887033

>  <Assay Description>  (346) 
Enzyme Assay: Isolated TRK Enzyme assays use the HTRF KinEASE-TK kit (Cisbio Cat# 62TK0PEJ) with recombinant His-tagged cytoplasmic domains of each TRK receptor sourced from Invitrogen (see table below). This activity-assay measures the phosphorylation of tyrosine residues within a substrate from the HTRF kit which has been validated by Cisbio for a variety of tyrosine kinases including the TRK receptors. Assay details: Target:TRKA; Invitrogen Cat# PV3144; Amino acids:aa 441-796; FAC enzyme:4nM; FAC ATP:40uM; Assay Reaction Time:35min.

>  <BAO Format ID>  (346) 
BAO_0000357

>  <BAO Label>  (346) 
single protein format

>  <Assay Organism>  (346) 
None

>  <Target ChEMBL ID>  (346) 
CHEMBL2815

>  <Target Name>  (346) 
Nerve growth factor receptor Trk-A

>  <Target Organism>  (346) 
Homo sapiens

>  <Target Type>  (346) 
SINGLE PROTEIN

>  <Document ChEMBL ID>  (346) 
CHEMBL3639348

>  <Source Description>  (346) 
BindingDB Database

>  <Document Journal>  (346) 
nan

>  <Document Year>  (346) 
2014.0

>  <Active>  (346) 
1.0

>  <bits>  (346) 
<rdkit.DataStructs.cDataStructs.ExplicitBitVect object at 0x00000159F543C970>

>  <Group>  (346) 
G2

$$$$

     RDKit          2D

 30 33  0  0  0  0  0  0  0  0999 V2000
   -2.9520   -4.6564    0.0000 C   0  0  0  0  0  0  0  0  0  0  0  0
   -2.6401   -3.1891    0.0000 C   0  0  0  0  0  0  0  0  0  0  0  0
   -3.7548   -2.1855    0.0000 C   0  0  0  0  0  0  0  0  0  0  0  0
   -1.2135   -2.7256    0.0000 N   0  0  0  0  0  0  0  0  0  0  0  0
   -0.0000   -3.6073    0.0000 C   0  0  0  0  0  0  0  0  0  0  0  0
    1.2135   -2.7256    0.0000 C   0  0  0  0  0  0  0  0  0  0  0  0
    2.6401   -3.1891    0.0000 C   0  0  0  0  0  0  0  0  0  0  0  0
    3.7548   -2.1855    0.0000 O   0  0  0  0  0  0  0  0  0  0  0  0
    2.9520   -4.6564    0.0000 C   0  0  0  0  0  0  0  0  0  0  0  0
    1.8373   -5.6601    0.0000 C   0  0  0  0  0  0  0  0  0  0  0  0
    2.1491   -7.1273    0.0000 C   0  0  0  0  0  0  0  0  0  0  0  0
    3.5757   -7.5908    0.0000 N   0  0  0  0  0  0  0  0  0  0  0  0
    4.6904   -6.5871    0.0000 C   0  0  0  0  0  0  0  0  0  0  0  0
    6.1170   -7.0506    0.0000 N   0  0  0  0  0  0  0  0  0  0  0  0
    6.4289   -8.5179    0.0000 C   0  0  0  0  0  0  0  0  0  0  0  0
    5.3142   -9.5216    0.0000 O   0  0  0  0  0  0  0  0  0  0  0  0
    7.8555   -8.9814    0.0000 C   0  0  0  0  0  0  0  0  0  0  0  0
    8.1673  -10.4486    0.0000 N   0  0  0  0  0  0  0  0  0  0  0  0
    9.5377  -11.0587    0.0000 C   0  0  0  0  0  0  0  0  0  0  0  0
    9.3809  -12.5505    0.0000 C   0  0  0  0  0  0  0  0  0  0  0  0
   10.4956  -13.5542    0.0000 Cl  0  0  0  0  0  0  0  0  0  0  0  0
    7.9136  -12.8624    0.0000 C   0  0  0  0  0  0  0  0  0  0  0  0
    7.1636  -11.5633    0.0000 N   0  0  0  0  0  0  0  0  0  0  0  0
    4.3786   -5.1199    0.0000 C   0  0  0  0  0  0  0  0  0  0  0  0
    0.7500   -1.2990    0.0000 C   0  0  0  0  0  0  0  0  0  0  0  0
    1.5000    0.0000    0.0000 C   0  0  0  0  0  0  0  0  0  0  0  0
    0.7500    1.2990    0.0000 N   0  0  0  0  0  0  0  0  0  0  0  0
   -0.7500    1.2990    0.0000 C   0  0  0  0  0  0  0  0  0  0  0  0
   -1.5000    0.0000    0.0000 C   0  0  0  0  0  0  0  0  0  0  0  0
   -0.7500   -1.2990    0.0000 C   0  0  0  0  0  0  0  0  0  0  0  0
  1  2  1  0
  2  3  1  0
  2  4  1  0
  4  5  1  0
  5  6  2  0
  6  7  1  0
  7  8  2  0
  7  9  1  0
  9 10  2  0
 10 11  1  0
 11 12  2  0
 12 13  1  0
 13 14  1  0
 14 15  1  0
 15 16  2  0
 15 17  1  0
 17 18  1  0
 18 19  1  0
 19 20  2  0
 20 21  1  0
 20 22  1  0
 22 23  2  0
 13 24  2  0
  6 25  1  0
 25 26  2  0
 26 27  1  0
 27 28  2  0
 28 29  1  0
 29 30  2  0
 30  4  1  0
 24  9  1  0
 30 25  1  0
 23 18  1  0
M  END
>  <Compound_ID>  (347) 
CHEMBL3978269

>  <Molecule Name>  (347) 
nan

>  <Molecular Weight>  (347) 
422.88

>  <AlogP>  (347) 
3.73

>  <Smiles>  (347) 
CC(C)n1cc(C(=O)c2ccnc(NC(=O)Cn3cc(Cl)cn3)c2)c2cnccc21

>  <Standard Type>  (347) 
IC50

>  <Standard Relation>  (347) 
'='

>  <Standard Units>  (347) 
nM

>  <Standard Value>  (347) 
42.9

>  <Assay ChEMBL ID>  (347) 
CHEMBL3887111

>  <Assay Description>  (347) 
HTRF Assay: Isolated TRK Enzyme assays use the HTRF KinEASE-TK kit (Cisbio Cat#62TK0PEJ) with recombinant His-tagged cytoplasmic domains of each TRK receptor sourced from Invitrogen (see table below). This activity-assay measures the phosphorylation of tyrosine residues within a substrate from the HTRF kit which has been validated by Cisbio for a variety of tyrosine kinases including the TRK receptors.Assay Details: Invitrogen Amino FAC FAC Assay ReactionTarget Cat# acids enzyme ATP TimeTRKA PV3144 aa 441-4 nM 40 uM 35 min (NTRK1) 796 TRKB PV3616 aa 526-1 nM 1.4 uM 40 min (NTRK2) 838 TRKC PV3617 aa 510- 10 nM 15 uM 30 min (NTRK3) 8250.5 mM stock solutions of test compounds are prepared and serially diluted in 100% DMSO. A standard curve using the compound of Example 135 disclosed in WO2005/116035 of 150 uM is also prepared on each test plate. High percentage effect (HPE) is defined by 150 uM.

>  <BAO Format ID>  (347) 
BAO_0000357

>  <BAO Label>  (347) 
single protein format

>  <Assay Organism>  (347) 
None

>  <Target ChEMBL ID>  (347) 
CHEMBL2815

>  <Target Name>  (347) 
Nerve growth factor receptor Trk-A

>  <Target Organism>  (347) 
Homo sapiens

>  <Target Type>  (347) 
SINGLE PROTEIN

>  <Document ChEMBL ID>  (347) 
CHEMBL3886170

>  <Source Description>  (347) 
BindingDB Database

>  <Document Journal>  (347) 
nan

>  <Document Year>  (347) 
2015.0

>  <Active>  (347) 
1.0

>  <bits>  (347) 
<rdkit.DataStructs.cDataStructs.ExplicitBitVect object at 0x00000159F543EA40>

>  <Group>  (347) 
G2

$$$$

     RDKit          2D

 33 37  0  0  0  0  0  0  0  0999 V2000
    3.0000    0.0000    0.0000 C   0  0  0  0  0  0  0  0  0  0  0  0
    1.5000    0.0000    0.0000 C   0  0  0  0  0  0  0  0  0  0  0  0
    0.7500   -1.2990    0.0000 C   0  0  0  0  0  0  0  0  0  0  0  0
   -0.7500   -1.2990    0.0000 N   0  0  0  0  0  0  0  0  0  0  0  0
   -1.5000    0.0000    0.0000 C   0  0  0  0  0  0  0  0  0  0  0  0
   -2.9672    0.3119    0.0000 N   0  0  0  0  0  0  0  0  0  0  0  0
   -3.1240    1.8037    0.0000 C   0  0  0  0  0  0  0  0  0  0  0  0
   -1.7537    2.4138    0.0000 C   0  0  0  0  0  0  0  0  0  0  0  0
   -1.4418    3.8810    0.0000 C   0  0  0  0  0  0  0  0  0  0  0  0
   -0.0152    4.3445    0.0000 O   0  0  0  0  0  0  0  0  0  0  0  0
   -2.5565    4.8847    0.0000 N   0  0  0  0  0  0  0  0  0  0  0  0
   -2.2447    6.3519    0.0000 C   0  0  0  0  0  0  0  0  0  0  0  0
   -0.8181    6.8154    0.0000 C   0  0  0  0  0  0  0  0  0  0  0  0
   -0.5062    8.2826    0.0000 N   0  0  0  0  0  0  0  0  0  0  0  0
   -1.6209    9.2863    0.0000 C   0  0  0  0  0  0  0  0  0  0  0  0
   -3.0475    8.8228    0.0000 C   0  0  0  0  0  0  0  0  0  0  0  0
   -4.1622    9.8265    0.0000 C   0  0  0  0  0  0  0  0  0  0  0  0
   -5.5888    9.3630    0.0000 O   0  0  0  0  0  0  0  0  0  0  0  0
   -3.8504   11.2937    0.0000 C   0  0  0  0  0  0  0  0  0  0  0  0
   -2.4801   11.9038    0.0000 C   0  0  0  0  0  0  0  0  0  0  0  0
   -2.6369   13.3956    0.0000 N   0  0  0  0  0  0  0  0  0  0  0  0
   -1.5221   14.3993    0.0000 C   0  0  0  0  0  0  0  0  0  0  0  0
   -0.0955   13.9358    0.0000 C   0  0  0  0  0  0  0  0  0  0  0  0
   -1.8340   15.8665    0.0000 C   0  0  0  0  0  0  0  0  0  0  0  0
   -4.1041   13.7075    0.0000 C   0  0  0  0  0  0  0  0  0  0  0  0
   -4.8541   15.0065    0.0000 N   0  0  0  0  0  0  0  0  0  0  0  0
   -6.3541   15.0065    0.0000 C   0  0  0  0  0  0  0  0  0  0  0  0
   -7.1041   13.7075    0.0000 N   0  0  0  0  0  0  0  0  0  0  0  0
   -6.3541   12.4084    0.0000 C   0  0  0  0  0  0  0  0  0  0  0  0
   -4.8541   12.4084    0.0000 C   0  0  0  0  0  0  0  0  0  0  0  0
   -3.3594    7.3556    0.0000 C   0  0  0  0  0  0  0  0  0  0  0  0
   -0.7500    1.2990    0.0000 C   0  0  0  0  0  0  0  0  0  0  0  0
    0.7500    1.2990    0.0000 C   0  0  0  0  0  0  0  0  0  0  0  0
  1  2  1  0
  2  3  2  0
  3  4  1  0
  4  5  2  0
  5  6  1  0
  6  7  1  0
  7  8  2  0
  8  9  1  0
  9 10  2  0
  9 11  1  0
 11 12  1  0
 12 13  2  0
 13 14  1  0
 14 15  2  0
 15 16  1  0
 16 17  1  0
 17 18  2  0
 17 19  1  0
 19 20  2  0
 20 21  1  0
 21 22  1  0
 22 23  1  0
 22 24  1  0
 21 25  1  0
 25 26  2  0
 26 27  1  0
 27 28  2  0
 28 29  1  0
 29 30  2  0
 16 31  2  0
  8 32  1  0
 32 33  2  0
 33  2  1  0
 32  5  1  0
 31 12  1  0
 30 19  1  0
 30 25  1  0
M  END
>  <Compound_ID>  (348) 
CHEMBL3666395

>  <Molecule Name>  (348) 
nan

>  <Molecular Weight>  (348) 
439.48

>  <AlogP>  (348) 
4.08

>  <Smiles>  (348) 
Cc1cnc2[nH]cc(C(=O)Nc3cncc(C(=O)c4cn(C(C)C)c5ncncc45)c3)c2c1

>  <Standard Type>  (348) 
IC50

>  <Standard Relation>  (348) 
'='

>  <Standard Units>  (348) 
nM

>  <Standard Value>  (348) 
5.18

>  <Assay ChEMBL ID>  (348) 
CHEMBL3887033

>  <Assay Description>  (348) 
Enzyme Assay: Isolated TRK Enzyme assays use the HTRF KinEASE-TK kit (Cisbio Cat# 62TK0PEJ) with recombinant His-tagged cytoplasmic domains of each TRK receptor sourced from Invitrogen (see table below). This activity-assay measures the phosphorylation of tyrosine residues within a substrate from the HTRF kit which has been validated by Cisbio for a variety of tyrosine kinases including the TRK receptors. Assay details: Target:TRKA; Invitrogen Cat# PV3144; Amino acids:aa 441-796; FAC enzyme:4nM; FAC ATP:40uM; Assay Reaction Time:35min.

>  <BAO Format ID>  (348) 
BAO_0000357

>  <BAO Label>  (348) 
single protein format

>  <Assay Organism>  (348) 
None

>  <Target ChEMBL ID>  (348) 
CHEMBL2815

>  <Target Name>  (348) 
Nerve growth factor receptor Trk-A

>  <Target Organism>  (348) 
Homo sapiens

>  <Target Type>  (348) 
SINGLE PROTEIN

>  <Document ChEMBL ID>  (348) 
CHEMBL3639348

>  <Source Description>  (348) 
BindingDB Database

>  <Document Journal>  (348) 
nan

>  <Document Year>  (348) 
2014.0

>  <Active>  (348) 
1.0

>  <bits>  (348) 
<rdkit.DataStructs.cDataStructs.ExplicitBitVect object at 0x00000159F543EEA0>

>  <Group>  (348) 
G2

$$$$

     RDKit          2D

 32 36  0  0  0  0  0  0  0  0999 V2000
   -2.9520   -4.6564    0.0000 C   0  0  0  0  0  0  0  0  0  0  0  0
   -2.6401   -3.1891    0.0000 C   0  0  0  0  0  0  0  0  0  0  0  0
   -3.7548   -2.1855    0.0000 C   0  0  0  0  0  0  0  0  0  0  0  0
   -1.2135   -2.7256    0.0000 N   0  0  0  0  0  0  0  0  0  0  0  0
   -0.0000   -3.6073    0.0000 C   0  0  0  0  0  0  0  0  0  0  0  0
    1.2135   -2.7256    0.0000 C   0  0  0  0  0  0  0  0  0  0  0  0
    2.6401   -3.1891    0.0000 C   0  0  0  0  0  0  0  0  0  0  0  0
    3.7548   -2.1855    0.0000 O   0  0  0  0  0  0  0  0  0  0  0  0
    2.9520   -4.6564    0.0000 C   0  0  0  0  0  0  0  0  0  0  0  0
    1.8373   -5.6601    0.0000 C   0  0  0  0  0  0  0  0  0  0  0  0
    2.1491   -7.1273    0.0000 N   0  0  0  0  0  0  0  0  0  0  0  0
    3.5757   -7.5908    0.0000 C   0  0  0  0  0  0  0  0  0  0  0  0
    4.6904   -6.5871    0.0000 C   0  0  0  0  0  0  0  0  0  0  0  0
    6.1170   -7.0506    0.0000 N   0  0  0  0  0  0  0  0  0  0  0  0
    6.4289   -8.5179    0.0000 C   0  0  0  0  0  0  0  0  0  0  0  0
    5.3142   -9.5216    0.0000 O   0  0  0  0  0  0  0  0  0  0  0  0
    7.8555   -8.9814    0.0000 C   0  0  0  0  0  0  0  0  0  0  0  0
    8.9702   -7.9777    0.0000 C   0  0  0  0  0  0  0  0  0  0  0  0
   10.3968   -8.4412    0.0000 C   0  0  0  0  0  0  0  0  0  0  0  0
   10.7086   -9.9084    0.0000 N   0  0  0  0  0  0  0  0  0  0  0  0
   12.0077  -10.6584    0.0000 N   0  0  0  0  0  0  0  0  0  0  0  0
   11.6958  -12.1257    0.0000 C   0  0  0  0  0  0  0  0  0  0  0  0
   10.2040  -12.2825    0.0000 N   0  0  0  0  0  0  0  0  0  0  0  0
    9.5939  -10.9121    0.0000 C   0  0  0  0  0  0  0  0  0  0  0  0
    8.1673  -10.4486    0.0000 C   0  0  0  0  0  0  0  0  0  0  0  0
    4.3786   -5.1199    0.0000 C   0  0  0  0  0  0  0  0  0  0  0  0
    0.7500   -1.2990    0.0000 C   0  0  0  0  0  0  0  0  0  0  0  0
    1.5000    0.0000    0.0000 C   0  0  0  0  0  0  0  0  0  0  0  0
    0.7500    1.2990    0.0000 N   0  0  0  0  0  0  0  0  0  0  0  0
   -0.7500    1.2990    0.0000 C   0  0  0  0  0  0  0  0  0  0  0  0
   -1.5000    0.0000    0.0000 N   0  0  0  0  0  0  0  0  0  0  0  0
   -0.7500   -1.2990    0.0000 C   0  0  0  0  0  0  0  0  0  0  0  0
  1  2  1  0
  2  3  1  0
  2  4  1  0
  4  5  1  0
  5  6  2  0
  6  7  1  0
  7  8  2  0
  7  9  1  0
  9 10  2  0
 10 11  1  0
 11 12  2  0
 12 13  1  0
 13 14  1  0
 14 15  1  0
 15 16  2  0
 15 17  1  0
 17 18  1  0
 18 19  2  0
 19 20  1  0
 20 21  1  0
 21 22  2  0
 22 23  1  0
 23 24  2  0
 24 25  1  0
 13 26  2  0
  6 27  1  0
 27 28  2  0
 28 29  1  0
 29 30  2  0
 30 31  1  0
 31 32  2  0
 32  4  1  0
 26  9  1  0
 32 27  1  0
 25 17  2  0
 24 20  1  0
M  END
>  <Compound_ID>  (349) 
CHEMBL3666409

>  <Molecule Name>  (349) 
nan

>  <Molecular Weight>  (349) 
426.44

>  <AlogP>  (349) 
2.93

>  <Smiles>  (349) 
CC(C)n1cc(C(=O)c2cncc(NC(=O)c3ccn4ncnc4c3)c2)c2cncnc21

>  <Standard Type>  (349) 
IC50

>  <Standard Relation>  (349) 
'='

>  <Standard Units>  (349) 
nM

>  <Standard Value>  (349) 
93.4

>  <Assay ChEMBL ID>  (349) 
CHEMBL3887033

>  <Assay Description>  (349) 
Enzyme Assay: Isolated TRK Enzyme assays use the HTRF KinEASE-TK kit (Cisbio Cat# 62TK0PEJ) with recombinant His-tagged cytoplasmic domains of each TRK receptor sourced from Invitrogen (see table below). This activity-assay measures the phosphorylation of tyrosine residues within a substrate from the HTRF kit which has been validated by Cisbio for a variety of tyrosine kinases including the TRK receptors. Assay details: Target:TRKA; Invitrogen Cat# PV3144; Amino acids:aa 441-796; FAC enzyme:4nM; FAC ATP:40uM; Assay Reaction Time:35min.

>  <BAO Format ID>  (349) 
BAO_0000357

>  <BAO Label>  (349) 
single protein format

>  <Assay Organism>  (349) 
None

>  <Target ChEMBL ID>  (349) 
CHEMBL2815

>  <Target Name>  (349) 
Nerve growth factor receptor Trk-A

>  <Target Organism>  (349) 
Homo sapiens

>  <Target Type>  (349) 
SINGLE PROTEIN

>  <Document ChEMBL ID>  (349) 
CHEMBL3639348

>  <Source Description>  (349) 
BindingDB Database

>  <Document Journal>  (349) 
nan

>  <Document Year>  (349) 
2014.0

>  <Active>  (349) 
1.0

>  <bits>  (349) 
<rdkit.DataStructs.cDataStructs.ExplicitBitVect object at 0x00000159F543DB60>

>  <Group>  (349) 
G2

$$$$

     RDKit          2D

 34 37  0  0  0  0  0  0  0  0999 V2000
   -7.2317   -6.0469    0.0000 C   0  0  0  0  0  0  0  0  0  0  0  0
   -6.1170   -7.0506    0.0000 O   0  0  0  0  0  0  0  0  0  0  0  0
   -4.6904   -6.5871    0.0000 C   0  0  0  0  0  0  0  0  0  0  0  0
   -4.3786   -5.1199    0.0000 C   0  0  0  0  0  0  0  0  0  0  0  0
   -2.9520   -4.6564    0.0000 C   0  0  0  0  0  0  0  0  0  0  0  0
   -2.6401   -3.1891    0.0000 C   0  0  0  0  0  0  0  0  0  0  0  0
   -1.2135   -2.7256    0.0000 N   0  0  0  0  0  0  0  0  0  0  0  0
   -0.0000   -3.6073    0.0000 C   0  0  0  0  0  0  0  0  0  0  0  0
    1.2135   -2.7256    0.0000 N   0  0  0  0  0  0  0  0  0  0  0  0
    0.7500   -1.2990    0.0000 C   0  0  0  0  0  0  0  0  0  0  0  0
    1.5000    0.0000    0.0000 C   0  0  0  0  0  0  0  0  0  0  0  0
    0.7500    1.2990    0.0000 C   0  0  0  0  0  0  0  0  0  0  0  0
    1.5000    2.5981    0.0000 C   0  0  0  0  0  0  0  0  0  0  0  0
    2.2500    3.8971    0.0000 C   0  0  0  0  0  0  0  0  0  0  0  0
    3.0000    5.1962    0.0000 C   0  0  0  0  0  0  0  0  0  0  0  0
    4.5000    5.1962    0.0000 C   0  0  0  0  0  0  0  0  0  0  0  0
    5.2500    6.4952    0.0000 O   0  0  0  0  0  0  0  0  0  0  0  0
   -0.7500    1.2990    0.0000 C   0  0  0  0  0  0  0  0  0  0  0  0
   -1.5000    0.0000    0.0000 N   0  0  0  0  0  0  0  0  0  0  0  0
   -0.7500   -1.2990    0.0000 C   0  0  0  0  0  0  0  0  0  0  0  0
   -1.8373   -5.6601    0.0000 C   0  0  0  0  0  0  0  0  0  0  0  0
   -2.1491   -7.1273    0.0000 C   0  0  0  0  0  0  0  0  0  0  0  0
   -3.5757   -7.5908    0.0000 C   0  0  0  0  0  0  0  0  0  0  0  0
   -3.8876   -9.0580    0.0000 O   0  0  0  0  0  0  0  0  0  0  0  0
   -2.7729  -10.0617    0.0000 C   0  0  0  0  0  0  0  0  0  0  0  0
   -3.0847  -11.5290    0.0000 C   0  0  0  0  0  0  0  0  0  0  0  0
   -4.5113  -11.9925    0.0000 C   0  0  0  0  0  0  0  0  0  0  0  0
   -4.8232  -13.4597    0.0000 C   0  0  0  0  0  0  0  0  0  0  0  0
   -3.7085  -14.4634    0.0000 C   0  0  0  0  0  0  0  0  0  0  0  0
   -4.0203  -15.9306    0.0000 C   0  0  0  0  0  0  0  0  0  0  0  0
   -5.4469  -16.3941    0.0000 F   0  0  0  0  0  0  0  0  0  0  0  0
   -2.9056  -16.9343    0.0000 F   0  0  0  0  0  0  0  0  0  0  0  0
   -2.2819  -13.9999    0.0000 N   0  0  0  0  0  0  0  0  0  0  0  0
   -1.9700  -12.5326    0.0000 C   0  0  0  0  0  0  0  0  0  0  0  0
  1  2  1  0
  2  3  1  0
  3  4  2  0
  4  5  1  0
  5  6  1  0
  6  7  1  0
  7  8  1  0
  8  9  2  0
  9 10  1  0
 10 11  2  0
 11 12  1  0
 12 13  1  0
 13 14  3  0
 14 15  1  0
 15 16  1  0
 16 17  1  0
 12 18  2  0
 18 19  1  0
 19 20  2  0
  5 21  2  0
 21 22  1  0
 22 23  2  0
 23 24  1  0
 24 25  1  0
 25 26  1  0
 26 27  2  0
 27 28  1  0
 28 29  2  0
 29 30  1  0
 30 31  1  0
 30 32  1  0
 29 33  1  0
 33 34  2  0
 23  3  1  0
 34 26  1  0
 20  7  1  0
 20 10  1  0
M  END
>  <Compound_ID>  (350) 
CHEMBL3678302

>  <Molecule Name>  (350) 
nan

>  <Molecular Weight>  (350) 
464.47

>  <AlogP>  (350) 
4.13

>  <Smiles>  (350) 
COc1cc(Cn2cnc3cc(C#CCCO)cnc32)ccc1OCc1ccc(C(F)F)nc1

>  <Standard Type>  (350) 
IC50

>  <Standard Relation>  (350) 
'='

>  <Standard Units>  (350) 
nM

>  <Standard Value>  (350) 
17.0

>  <Assay ChEMBL ID>  (350) 
CHEMBL3887112

>  <Assay Description>  (350) 
Inhibition Assay: Reagents and consumables were purchased from Sigma Aldrich, Carna Biosciences, or Caliper Life Sciences. All assay reaction conditions for IC50 determinations were within the linear range with respect to time and enzyme concentration. In a 384 well polypropylene plate, TrkA (0.4 nM, Carna 08-186) was pre-incubated in a 100 mM Hepes-NaOH pH 7.5 buffer containing 0.01% Triton X-100, 10 mM MgCl2, 0.1% BSA, 1 mM DTT, 10 uM sodium orthovanadate and 10 uM beta-glycerophosphate and compound with a concentration of 2.5% DMSO for 15 minutes at room temperature. The reaction was initiated with an equal volume of peptide substrate (Caliper Life Sciences catalog no. 760430) and ATP in the aforementioned buffer. The final concentrations in the reaction were 200 pM TrkA, 1.5 uM peptide substrate and 55 uM ATP (ATP Km). The reaction was incubated at room temperature for 180 minutes and terminated with a buffer containing excess EDTA (100 mM Hepes-NaOH pH 7.5, 0.02% Brij.

>  <BAO Format ID>  (350) 
BAO_0000357

>  <BAO Label>  (350) 
single protein format

>  <Assay Organism>  (350) 
None

>  <Target ChEMBL ID>  (350) 
CHEMBL2815

>  <Target Name>  (350) 
Nerve growth factor receptor Trk-A

>  <Target Organism>  (350) 
Homo sapiens

>  <Target Type>  (350) 
SINGLE PROTEIN

>  <Document ChEMBL ID>  (350) 
CHEMBL3638818

>  <Source Description>  (350) 
BindingDB Database

>  <Document Journal>  (350) 
nan

>  <Document Year>  (350) 
2015.0

>  <Active>  (350) 
1.0

>  <bits>  (350) 
<rdkit.DataStructs.cDataStructs.ExplicitBitVect object at 0x00000159F543C200>

>  <Group>  (350) 
G2

$$$$

     RDKit          2D

 37 41  0  0  0  0  0  0  0  0999 V2000
   -5.3605    2.7564    0.0000 C   0  0  0  0  0  0  0  0  0  0  0  0
   -4.2458    1.7527    0.0000 O   0  0  0  0  0  0  0  0  0  0  0  0
   -4.5577    0.2855    0.0000 C   0  0  0  0  0  0  0  0  0  0  0  0
   -3.4430   -0.7182    0.0000 C   0  0  0  0  0  0  0  0  0  0  0  0
   -3.7548   -2.1855    0.0000 C   0  0  0  0  0  0  0  0  0  0  0  0
   -2.6401   -3.1891    0.0000 C   0  0  0  0  0  0  0  0  0  0  0  0
   -2.9520   -4.6564    0.0000 C   0  0  0  0  0  0  0  0  0  0  0  0
   -1.2135   -2.7256    0.0000 N   0  0  0  0  0  0  0  0  0  0  0  0
   -0.0000   -3.6073    0.0000 C   0  0  0  0  0  0  0  0  0  0  0  0
    1.2135   -2.7256    0.0000 N   0  0  0  0  0  0  0  0  0  0  0  0
    0.7500   -1.2990    0.0000 C   0  0  0  0  0  0  0  0  0  0  0  0
    1.5000    0.0000    0.0000 C   0  0  0  0  0  0  0  0  0  0  0  0
    0.7500    1.2990    0.0000 C   0  0  0  0  0  0  0  0  0  0  0  0
    1.5000    2.5981    0.0000 C   0  0  0  0  0  0  0  0  0  0  0  0
    0.8899    3.9684    0.0000 C   0  0  0  0  0  0  0  0  0  0  0  0
    2.0046    4.9721    0.0000 N   0  0  0  0  0  0  0  0  0  0  0  0
    3.3037    4.2221    0.0000 N   0  0  0  0  0  0  0  0  0  0  0  0
    4.6740    4.8322    0.0000 C   0  0  0  0  0  0  0  0  0  0  0  0
    2.9918    2.7549    0.0000 C   0  0  0  0  0  0  0  0  0  0  0  0
   -0.7500    1.2990    0.0000 C   0  0  0  0  0  0  0  0  0  0  0  0
   -1.5000    0.0000    0.0000 N   0  0  0  0  0  0  0  0  0  0  0  0
   -0.7500   -1.2990    0.0000 C   0  0  0  0  0  0  0  0  0  0  0  0
   -5.1814   -2.6490    0.0000 C   0  0  0  0  0  0  0  0  0  0  0  0
   -6.2961   -1.6453    0.0000 C   0  0  0  0  0  0  0  0  0  0  0  0
   -5.9843   -0.1781    0.0000 C   0  0  0  0  0  0  0  0  0  0  0  0
   -7.0990    0.8256    0.0000 O   0  0  0  0  0  0  0  0  0  0  0  0
   -8.5256    0.3621    0.0000 C   0  0  0  0  0  0  0  0  0  0  0  0
   -9.6403    1.3658    0.0000 C   0  0  0  0  0  0  0  0  0  0  0  0
   -9.3284    2.8330    0.0000 C   0  0  0  0  0  0  0  0  0  0  0  0
  -10.4431    3.8367    0.0000 C   0  0  0  0  0  0  0  0  0  0  0  0
  -11.8697    3.3732    0.0000 C   0  0  0  0  0  0  0  0  0  0  0  0
  -12.9844    4.3769    0.0000 C   0  0  0  0  0  0  0  0  0  0  0  0
  -14.0992    5.3806    0.0000 F   0  0  0  0  0  0  0  0  0  0  0  0
  -11.9807    5.4916    0.0000 F   0  0  0  0  0  0  0  0  0  0  0  0
  -13.9881    3.2622    0.0000 F   0  0  0  0  0  0  0  0  0  0  0  0
  -12.1816    1.9060    0.0000 N   0  0  0  0  0  0  0  0  0  0  0  0
  -11.0669    0.9023    0.0000 C   0  0  0  0  0  0  0  0  0  0  0  0
  1  2  1  0
  2  3  1  0
  3  4  2  0
  4  5  1  0
  5  6  1  0
  6  7  1  0
  6  8  1  0
  8  9  1  0
  9 10  2  0
 10 11  1  0
 11 12  2  0
 12 13  1  0
 13 14  1  0
 14 15  1  0
 15 16  2  0
 16 17  1  0
 17 18  1  0
 17 19  1  0
 13 20  2  0
 20 21  1  0
 21 22  2  0
  5 23  2  0
 23 24  1  0
 24 25  2  0
 25 26  1  0
 26 27  1  0
 27 28  1  0
 28 29  2  0
 29 30  1  0
 30 31  2  0
 31 32  1  0
 32 33  1  0
 32 34  1  0
 32 35  1  0
 31 36  1  0
 36 37  2  0
 25  3  1  0
 37 28  1  0
 22  8  1  0
 22 11  1  0
 19 14  2  0
M  END
>  <Compound_ID>  (351) 
CHEMBL3678299

>  <Molecule Name>  (351) 
nan

>  <Molecular Weight>  (351) 
508.5

>  <AlogP>  (351) 
5.44

>  <Smiles>  (351) 
COc1cc(C(C)n2cnc3cc(-c4cnn(C)c4)cnc32)ccc1OCc1ccc(C(F)(F)F)nc1

>  <Standard Type>  (351) 
IC50

>  <Standard Relation>  (351) 
'='

>  <Standard Units>  (351) 
nM

>  <Standard Value>  (351) 
7.0

>  <Assay ChEMBL ID>  (351) 
CHEMBL3887112

>  <Assay Description>  (351) 
Inhibition Assay: Reagents and consumables were purchased from Sigma Aldrich, Carna Biosciences, or Caliper Life Sciences. All assay reaction conditions for IC50 determinations were within the linear range with respect to time and enzyme concentration. In a 384 well polypropylene plate, TrkA (0.4 nM, Carna 08-186) was pre-incubated in a 100 mM Hepes-NaOH pH 7.5 buffer containing 0.01% Triton X-100, 10 mM MgCl2, 0.1% BSA, 1 mM DTT, 10 uM sodium orthovanadate and 10 uM beta-glycerophosphate and compound with a concentration of 2.5% DMSO for 15 minutes at room temperature. The reaction was initiated with an equal volume of peptide substrate (Caliper Life Sciences catalog no. 760430) and ATP in the aforementioned buffer. The final concentrations in the reaction were 200 pM TrkA, 1.5 uM peptide substrate and 55 uM ATP (ATP Km). The reaction was incubated at room temperature for 180 minutes and terminated with a buffer containing excess EDTA (100 mM Hepes-NaOH pH 7.5, 0.02% Brij.

>  <BAO Format ID>  (351) 
BAO_0000357

>  <BAO Label>  (351) 
single protein format

>  <Assay Organism>  (351) 
None

>  <Target ChEMBL ID>  (351) 
CHEMBL2815

>  <Target Name>  (351) 
Nerve growth factor receptor Trk-A

>  <Target Organism>  (351) 
Homo sapiens

>  <Target Type>  (351) 
SINGLE PROTEIN

>  <Document ChEMBL ID>  (351) 
CHEMBL3638818

>  <Source Description>  (351) 
BindingDB Database

>  <Document Journal>  (351) 
nan

>  <Document Year>  (351) 
2015.0

>  <Active>  (351) 
1.0

>  <bits>  (351) 
<rdkit.DataStructs.cDataStructs.ExplicitBitVect object at 0x00000159F543ECE0>

>  <Group>  (351) 
G2

$$$$

     RDKit          2D

 34 38  0  0  0  0  0  0  0  0999 V2000
  -10.3968   -8.4412    0.0000 C   0  0  0  0  0  0  0  0  0  0  0  0
   -8.9702   -7.9777    0.0000 N   0  0  0  0  0  0  0  0  0  0  0  0
   -8.6583   -6.5105    0.0000 C   0  0  0  0  0  0  0  0  0  0  0  0
   -7.2317   -6.0469    0.0000 C   0  0  0  0  0  0  0  0  0  0  0  0
   -6.1170   -7.0506    0.0000 N   0  0  0  0  0  0  0  0  0  0  0  0
   -4.6904   -6.5871    0.0000 C   0  0  0  0  0  0  0  0  0  0  0  0
   -4.3786   -5.1199    0.0000 C   0  0  0  0  0  0  0  0  0  0  0  0
   -2.9520   -4.6564    0.0000 N   0  0  0  0  0  0  0  0  0  0  0  0
   -2.6401   -3.1891    0.0000 C   0  0  0  0  0  0  0  0  0  0  0  0
   -3.7548   -2.1855    0.0000 O   0  0  0  0  0  0  0  0  0  0  0  0
   -1.2135   -2.7256    0.0000 C   0  0  0  0  0  0  0  0  0  0  0  0
   -0.0000   -3.6073    0.0000 C   0  0  0  0  0  0  0  0  0  0  0  0
    1.2135   -2.7256    0.0000 N   0  0  0  0  0  0  0  0  0  0  0  0
    0.7500   -1.2990    0.0000 N   0  0  0  0  0  0  0  0  0  0  0  0
    1.5000    0.0000    0.0000 C   0  0  0  0  0  0  0  0  0  0  0  0
    0.7500    1.2990    0.0000 C   0  0  0  0  0  0  0  0  0  0  0  0
   -0.7500    1.2990    0.0000 C   0  0  0  0  0  0  0  0  0  0  0  0
   -1.5000    2.5981    0.0000 N   0  0  0  0  0  0  0  0  0  0  0  0
   -2.9918    2.7549    0.0000 C   0  0  0  0  0  0  0  0  0  0  0  0
   -3.3037    4.2221    0.0000 C   0  0  0  0  0  0  0  0  0  0  0  0
   -2.0046    4.9721    0.0000 C   0  0  0  0  0  0  0  0  0  0  0  0
   -0.8899    3.9684    0.0000 C   0  0  0  0  0  0  0  0  0  0  0  0
    0.5773    4.2803    0.0000 C   0  0  0  0  0  0  0  0  0  0  0  0
    1.5810    3.1655    0.0000 C   0  0  0  0  0  0  0  0  0  0  0  0
    3.0482    3.4774    0.0000 C   0  0  0  0  0  0  0  0  0  0  0  0
    4.0519    2.3627    0.0000 F   0  0  0  0  0  0  0  0  0  0  0  0
    3.5118    4.9040    0.0000 C   0  0  0  0  0  0  0  0  0  0  0  0
    2.5081    6.0187    0.0000 C   0  0  0  0  0  0  0  0  0  0  0  0
    1.0409    5.7068    0.0000 C   0  0  0  0  0  0  0  0  0  0  0  0
    0.0372    6.8216    0.0000 F   0  0  0  0  0  0  0  0  0  0  0  0
   -1.5000    0.0000    0.0000 N   0  0  0  0  0  0  0  0  0  0  0  0
   -0.7500   -1.2990    0.0000 C   0  0  0  0  0  0  0  0  0  0  0  0
   -6.4289   -8.5179    0.0000 C   0  0  0  0  0  0  0  0  0  0  0  0
   -7.8555   -8.9814    0.0000 C   0  0  0  0  0  0  0  0  0  0  0  0
  1  2  1  0
  2  3  1  0
  3  4  1  0
  4  5  1  0
  5  6  1  0
  6  7  1  0
  7  8  1  0
  8  9  1  0
  9 10  2  0
  9 11  1  0
 11 12  1  0
 12 13  2  0
 13 14  1  0
 14 15  1  0
 15 16  2  0
 16 17  1  0
 17 18  1  0
 18 19  1  0
 19 20  1  0
 20 21  1  0
 21 22  1  0
 22 23  1  0
 23 24  2  0
 24 25  1  0
 25 26  1  0
 25 27  2  0
 27 28  1  0
 28 29  2  0
 29 30  1  0
 17 31  2  0
 31 32  1  0
  5 33  1  0
 33 34  1  0
 34  2  1  0
 32 11  2  0
 32 14  1  0
 22 18  1  0
 29 23  1  0
M  END
>  <Compound_ID>  (352) 
CHEMBL3676040

>  <Molecule Name>  (352) 
nan

>  <Molecular Weight>  (352) 
469.54

>  <AlogP>  (352) 
2.33

>  <Smiles>  (352) 
CN1CCN(CCNC(=O)c2cnn3ccc(N4CCCC4c4cc(F)ccc4F)nc23)CC1

>  <Standard Type>  (352) 
IC50

>  <Standard Relation>  (352) 
'='

>  <Standard Units>  (352) 
nM

>  <Standard Value>  (352) 
4.7

>  <Assay ChEMBL ID>  (352) 
CHEMBL3887070

>  <Assay Description>  (352) 
ELISA Assay: An enzyme-linked immunosorbant assay (ELISA) was used to assess TrkA kinase activity in the presence of inhibitors. Immulon 4HBX 384-well microtiter plates (Thermo part #8755) were coated with a 0.025 mg/mL solution of poly (Glu, Ala, Tyr; 6:3:1; Sigma P3899). Various concentrations of test compound, 2.5 nM TrkA (Invitrogen Corp., histidine-tagged recombinant human TrkA, cytoplasmic domain), and 500 uM ATP were incubated for 25 minutes at ambient temperature in the coated plates while shaking The assay buffer consisted of 25 mM MOPS pH 7.5, 0.005% (v/v) Triton X-100 and 5 mM MgCl2. The reaction mixture was removed from the plate by washing with PBS containing 0.1% (v/v) Tween 20. The phosphorylated reaction product was detected using 0.2 ug/mL of a phosphotyrosine specific monoclonal antibody (clone PY20) conjugated to horseradish peroxidase in conjunction with the TMB Peroxidase Substrate System (KPL).

>  <BAO Format ID>  (352) 
BAO_0000357

>  <BAO Label>  (352) 
single protein format

>  <Assay Organism>  (352) 
None

>  <Target ChEMBL ID>  (352) 
CHEMBL2815

>  <Target Name>  (352) 
Nerve growth factor receptor Trk-A

>  <Target Organism>  (352) 
Homo sapiens

>  <Target Type>  (352) 
SINGLE PROTEIN

>  <Document ChEMBL ID>  (352) 
CHEMBL3638907

>  <Source Description>  (352) 
BindingDB Database

>  <Document Journal>  (352) 
nan

>  <Document Year>  (352) 
2014.0

>  <Active>  (352) 
1.0

>  <bits>  (352) 
<rdkit.DataStructs.cDataStructs.ExplicitBitVect object at 0x00000159F543EE30>

>  <Group>  (352) 
G2

$$$$

     RDKit          2D

 31 34  0  0  0  0  0  0  0  0999 V2000
   -3.7548   -2.1855    0.0000 O   0  0  0  0  0  0  0  0  0  0  0  0
   -2.6401   -3.1891    0.0000 C   0  0  0  0  0  0  0  0  0  0  0  0
   -2.9520   -4.6564    0.0000 N   0  0  0  0  0  0  0  0  0  0  0  0
   -4.3786   -5.1199    0.0000 O   0  0  0  0  0  0  0  0  0  0  0  0
   -4.6904   -6.5871    0.0000 C   0  0  0  0  0  0  0  0  0  0  0  0
   -6.1170   -7.0506    0.0000 C   0  0  0  0  0  0  0  0  0  0  0  0
   -7.2317   -6.0469    0.0000 O   0  0  0  0  0  0  0  0  0  0  0  0
   -6.4289   -8.5179    0.0000 C   0  0  0  0  0  0  0  0  0  0  0  0
   -7.8555   -8.9814    0.0000 O   0  0  0  0  0  0  0  0  0  0  0  0
   -1.2135   -2.7256    0.0000 C   0  0  0  0  0  0  0  0  0  0  0  0
   -0.0000   -3.6073    0.0000 C   0  0  0  0  0  0  0  0  0  0  0  0
    1.2135   -2.7256    0.0000 N   0  0  0  0  0  0  0  0  0  0  0  0
    0.7500   -1.2990    0.0000 N   0  0  0  0  0  0  0  0  0  0  0  0
    1.5000    0.0000    0.0000 C   0  0  0  0  0  0  0  0  0  0  0  0
    0.7500    1.2990    0.0000 C   0  0  0  0  0  0  0  0  0  0  0  0
   -0.7500    1.2990    0.0000 C   0  0  0  0  0  0  0  0  0  0  0  0
   -1.5000    2.5981    0.0000 N   0  0  0  0  0  0  0  0  0  0  0  0
   -2.9918    2.7549    0.0000 C   0  0  0  0  0  0  0  0  0  0  0  0
   -3.3037    4.2221    0.0000 C   0  0  0  0  0  0  0  0  0  0  0  0
   -2.0046    4.9721    0.0000 C   0  0  0  0  0  0  0  0  0  0  0  0
   -0.8899    3.9684    0.0000 C   0  0  0  0  0  0  0  0  0  0  0  0
    0.5773    4.2803    0.0000 C   0  0  0  0  0  0  0  0  0  0  0  0
    1.5810    3.1655    0.0000 C   0  0  0  0  0  0  0  0  0  0  0  0
    3.0482    3.4774    0.0000 C   0  0  0  0  0  0  0  0  0  0  0  0
    4.0519    2.3627    0.0000 F   0  0  0  0  0  0  0  0  0  0  0  0
    3.5118    4.9040    0.0000 C   0  0  0  0  0  0  0  0  0  0  0  0
    2.5081    6.0187    0.0000 C   0  0  0  0  0  0  0  0  0  0  0  0
    1.0409    5.7068    0.0000 C   0  0  0  0  0  0  0  0  0  0  0  0
    0.0372    6.8216    0.0000 F   0  0  0  0  0  0  0  0  0  0  0  0
   -1.5000    0.0000    0.0000 N   0  0  0  0  0  0  0  0  0  0  0  0
   -0.7500   -1.2990    0.0000 C   0  0  0  0  0  0  0  0  0  0  0  0
  1  2  2  0
  2  3  1  0
  3  4  1  0
  4  5  1  0
  5  6  1  0
  6  7  1  6
  6  8  1  0
  8  9  1  0
  2 10  1  0
 10 11  1  0
 11 12  2  0
 12 13  1  0
 13 14  1  0
 14 15  2  0
 15 16  1  0
 16 17  1  0
 17 18  1  0
 18 19  1  0
 19 20  1  0
 20 21  1  0
 21 22  1  6
 22 23  2  0
 23 24  1  0
 24 25  1  0
 24 26  2  0
 26 27  1  0
 27 28  2  0
 28 29  1  0
 16 30  2  0
 30 31  1  0
 31 10  2  0
 31 13  1  0
 21 17  1  0
 28 22  1  0
M  END
>  <Compound_ID>  (353) 
CHEMBL3675963

>  <Molecule Name>  (353) 
nan

>  <Molecular Weight>  (353) 
433.42

>  <AlogP>  (353) 
1.36

>  <Smiles>  (353) 
O=C(NOC[C@@H](O)CO)c1cnn2ccc(N3CCC[C@@H]3c3cc(F)ccc3F)nc12

>  <Standard Type>  (353) 
IC50

>  <Standard Relation>  (353) 
'='

>  <Standard Units>  (353) 
nM

>  <Standard Value>  (353) 
6.13

>  <Assay ChEMBL ID>  (353) 
CHEMBL3887070

>  <Assay Description>  (353) 
ELISA Assay: An enzyme-linked immunosorbant assay (ELISA) was used to assess TrkA kinase activity in the presence of inhibitors. Immulon 4HBX 384-well microtiter plates (Thermo part #8755) were coated with a 0.025 mg/mL solution of poly (Glu, Ala, Tyr; 6:3:1; Sigma P3899). Various concentrations of test compound, 2.5 nM TrkA (Invitrogen Corp., histidine-tagged recombinant human TrkA, cytoplasmic domain), and 500 uM ATP were incubated for 25 minutes at ambient temperature in the coated plates while shaking The assay buffer consisted of 25 mM MOPS pH 7.5, 0.005% (v/v) Triton X-100 and 5 mM MgCl2. The reaction mixture was removed from the plate by washing with PBS containing 0.1% (v/v) Tween 20. The phosphorylated reaction product was detected using 0.2 ug/mL of a phosphotyrosine specific monoclonal antibody (clone PY20) conjugated to horseradish peroxidase in conjunction with the TMB Peroxidase Substrate System (KPL).

>  <BAO Format ID>  (353) 
BAO_0000357

>  <BAO Label>  (353) 
single protein format

>  <Assay Organism>  (353) 
None

>  <Target ChEMBL ID>  (353) 
CHEMBL2815

>  <Target Name>  (353) 
Nerve growth factor receptor Trk-A

>  <Target Organism>  (353) 
Homo sapiens

>  <Target Type>  (353) 
SINGLE PROTEIN

>  <Document ChEMBL ID>  (353) 
CHEMBL3638907

>  <Source Description>  (353) 
BindingDB Database

>  <Document Journal>  (353) 
nan

>  <Document Year>  (353) 
2014.0

>  <Active>  (353) 
1.0

>  <bits>  (353) 
<rdkit.DataStructs.cDataStructs.ExplicitBitVect object at 0x00000159F543DA80>

>  <Group>  (353) 
G2

$$$$

     RDKit          2D

 45 50  0  0  0  0  0  0  0  0999 V2000
   -0.0000   -5.1073    0.0000 O   0  0  0  0  0  0  0  0  0  0  0  0
   -0.0000   -3.6073    0.0000 C   0  0  0  0  0  0  0  0  0  0  0  0
    1.2135   -2.7256    0.0000 N   0  0  0  0  0  0  0  0  0  0  0  0
    0.7500   -1.2990    0.0000 C   0  0  0  0  0  0  0  0  0  0  0  0
    1.5000    0.0000    0.0000 C   0  0  0  0  0  0  0  0  0  0  0  0
    0.7500    1.2990    0.0000 C   0  0  0  0  0  0  0  0  0  0  0  0
    1.5000    2.5981    0.0000 N   0  0  0  0  0  0  0  0  0  0  0  0
    3.0000    2.5981    0.0000 C   0  0  0  0  0  0  0  0  0  0  0  0
    3.7500    1.2990    0.0000 C   0  0  0  0  0  0  0  0  0  0  0  0
    5.2500    1.2990    0.0000 C   0  0  0  0  0  0  0  0  0  0  0  0
    6.0000    2.5981    0.0000 C   0  0  0  0  0  0  0  0  0  0  0  0
    5.2500    3.8971    0.0000 C   0  0  0  0  0  0  0  0  0  0  0  0
    6.0000    5.1962    0.0000 N   0  0  0  0  0  0  0  0  0  0  0  0
    7.5000    5.1962    0.0000 C   0  0  0  0  0  0  0  0  0  0  0  0
    8.2500    3.8971    0.0000 O   0  0  0  0  0  0  0  0  0  0  0  0
    8.2500    6.4952    0.0000 C   0  0  0  0  0  0  0  0  0  0  0  0
    9.7500    6.4952    0.0000 C   0  0  0  0  0  0  0  0  0  0  0  0
   10.5000    7.7942    0.0000 C   0  0  0  0  0  0  0  0  0  0  0  0
   12.0000    7.7942    0.0000 N   0  0  0  0  0  0  0  0  0  0  0  0
   12.7500    6.4952    0.0000 C   0  0  0  0  0  0  0  0  0  0  0  0
   14.2500    6.4952    0.0000 C   0  0  0  0  0  0  0  0  0  0  0  0
   15.0000    7.7942    0.0000 N   0  0  0  0  0  0  0  0  0  0  0  0
   16.5000    7.7942    0.0000 C   0  0  0  0  0  0  0  0  0  0  0  0
   17.2500    6.4952    0.0000 C   0  0  0  0  0  0  0  0  0  0  0  0
   18.7500    6.4952    0.0000 O   0  0  0  0  0  0  0  0  0  0  0  0
   14.2500    9.0933    0.0000 C   0  0  0  0  0  0  0  0  0  0  0  0
   12.7500    9.0933    0.0000 C   0  0  0  0  0  0  0  0  0  0  0  0
    9.7500    9.0933    0.0000 C   0  0  0  0  0  0  0  0  0  0  0  0
    8.2500    9.0933    0.0000 C   0  0  0  0  0  0  0  0  0  0  0  0
    7.5000   10.3923    0.0000 C   0  0  0  0  0  0  0  0  0  0  0  0
    6.7500   11.6913    0.0000 F   0  0  0  0  0  0  0  0  0  0  0  0
    8.7990   11.1423    0.0000 F   0  0  0  0  0  0  0  0  0  0  0  0
    6.2010    9.6423    0.0000 F   0  0  0  0  0  0  0  0  0  0  0  0
    7.5000    7.7942    0.0000 C   0  0  0  0  0  0  0  0  0  0  0  0
    3.7500    3.8971    0.0000 C   0  0  0  0  0  0  0  0  0  0  0  0
   -0.7500    1.2990    0.0000 C   0  0  0  0  0  0  0  0  0  0  0  0
   -1.5000    0.0000    0.0000 C   0  0  0  0  0  0  0  0  0  0  0  0
   -0.7500   -1.2990    0.0000 C   0  0  0  0  0  0  0  0  0  0  0  0
   -1.2135   -2.7256    0.0000 C   0  0  0  0  0  0  0  0  0  0  0  0
   -2.6401   -3.1891    0.0000 C   0  0  0  0  0  0  0  0  0  0  0  0
   -2.9520   -4.6564    0.0000 C   0  0  0  0  0  0  0  0  0  0  0  0
   -1.9483   -5.7711    0.0000 C   0  0  0  0  0  0  0  0  0  0  0  0
   -2.6983   -7.0701    0.0000 C   0  0  0  0  0  0  0  0  0  0  0  0
   -4.1655   -6.7583    0.0000 C   0  0  0  0  0  0  0  0  0  0  0  0
   -4.3223   -5.2665    0.0000 N   0  0  0  0  0  0  0  0  0  0  0  0
  1  2  2  0
  2  3  1  0
  3  4  1  0
  4  5  2  0
  5  6  1  0
  6  7  1  0
  7  8  1  0
  8  9  2  0
  9 10  1  0
 10 11  2  0
 11 12  1  0
 12 13  1  0
 13 14  1  0
 14 15  2  0
 14 16  1  0
 16 17  2  0
 17 18  1  0
 18 19  1  0
 19 20  1  0
 20 21  1  0
 21 22  1  0
 22 23  1  0
 23 24  1  0
 24 25  1  0
 22 26  1  0
 26 27  1  0
 18 28  2  0
 28 29  1  0
 29 30  1  0
 30 31  1  0
 30 32  1  0
 30 33  1  0
 29 34  2  0
 12 35  2  0
  6 36  2  0
 36 37  1  0
 37 38  2  0
 38 39  1  0
 39 40  2  0
 40 41  1  0
 41 42  2  0
 42 43  1  0
 43 44  2  0
 44 45  1  0
 39  2  1  0
 45 41  1  0
 38  4  1  0
 35  8  1  0
 34 16  1  0
 27 19  1  0
M  END
>  <Compound_ID>  (354) 
CHEMBL2037214

>  <Molecule Name>  (354) 
nan

>  <Molecular Weight>  (354) 
616.64

>  <AlogP>  (354) 
5.64

>  <Smiles>  (354) 
O=C1Nc2cc(Nc3cccc(NC(=O)c4cc(N5CCN(CCO)CC5)cc(C(F)(F)F)c4)c3)ccc2/C1=C/c1ccc[nH]1

>  <Standard Type>  (354) 
IC50

>  <Standard Relation>  (354) 
'='

>  <Standard Units>  (354) 
nM

>  <Standard Value>  (354) 
68.0

>  <Assay ChEMBL ID>  (354) 
CHEMBL2038860

>  <Assay Description>  (354) 
Inhibition of TRKA by HTRF assay

>  <BAO Format ID>  (354) 
BAO_0000357

>  <BAO Label>  (354) 
single protein format

>  <Assay Organism>  (354) 
None

>  <Target ChEMBL ID>  (354) 
CHEMBL2815

>  <Target Name>  (354) 
Nerve growth factor receptor Trk-A

>  <Target Organism>  (354) 
Homo sapiens

>  <Target Type>  (354) 
SINGLE PROTEIN

>  <Document ChEMBL ID>  (354) 
CHEMBL2034853

>  <Source Description>  (354) 
Scientific Literature

>  <Document Journal>  (354) 
ACS Med Chem Lett

>  <Document Year>  (354) 
2012.0

>  <Active>  (354) 
1.0

>  <bits>  (354) 
<rdkit.DataStructs.cDataStructs.ExplicitBitVect object at 0x00000159F543C040>

>  <Group>  (354) 
G2

$$$$

     RDKit          2D

 43 48  0  0  0  0  0  0  0  0999 V2000
   -0.0000   -5.1073    0.0000 O   0  0  0  0  0  0  0  0  0  0  0  0
   -0.0000   -3.6073    0.0000 C   0  0  0  0  0  0  0  0  0  0  0  0
    1.2135   -2.7256    0.0000 N   0  0  0  0  0  0  0  0  0  0  0  0
    0.7500   -1.2990    0.0000 C   0  0  0  0  0  0  0  0  0  0  0  0
    1.5000    0.0000    0.0000 C   0  0  0  0  0  0  0  0  0  0  0  0
    0.7500    1.2990    0.0000 C   0  0  0  0  0  0  0  0  0  0  0  0
    1.5000    2.5981    0.0000 N   0  0  0  0  0  0  0  0  0  0  0  0
    3.0000    2.5981    0.0000 C   0  0  0  0  0  0  0  0  0  0  0  0
    3.7500    1.2990    0.0000 C   0  0  0  0  0  0  0  0  0  0  0  0
    5.2500    1.2990    0.0000 C   0  0  0  0  0  0  0  0  0  0  0  0
    6.0000    2.5981    0.0000 C   0  0  0  0  0  0  0  0  0  0  0  0
    5.2500    3.8971    0.0000 C   0  0  0  0  0  0  0  0  0  0  0  0
    6.0000    5.1962    0.0000 N   0  0  0  0  0  0  0  0  0  0  0  0
    7.5000    5.1962    0.0000 C   0  0  0  0  0  0  0  0  0  0  0  0
    8.2500    3.8971    0.0000 O   0  0  0  0  0  0  0  0  0  0  0  0
    8.2500    6.4952    0.0000 C   0  0  0  0  0  0  0  0  0  0  0  0
    9.7500    6.4952    0.0000 C   0  0  0  0  0  0  0  0  0  0  0  0
   10.5000    7.7942    0.0000 C   0  0  0  0  0  0  0  0  0  0  0  0
   12.0000    7.7942    0.0000 N   0  0  0  0  0  0  0  0  0  0  0  0
   12.7500    6.4952    0.0000 C   0  0  0  0  0  0  0  0  0  0  0  0
   14.2500    6.4952    0.0000 C   0  0  0  0  0  0  0  0  0  0  0  0
   15.0000    7.7942    0.0000 C   0  0  0  0  0  0  0  0  0  0  0  0
   16.5000    7.7942    0.0000 O   0  0  0  0  0  0  0  0  0  0  0  0
   14.2500    9.0933    0.0000 C   0  0  0  0  0  0  0  0  0  0  0  0
   12.7500    9.0933    0.0000 C   0  0  0  0  0  0  0  0  0  0  0  0
    9.7500    9.0933    0.0000 C   0  0  0  0  0  0  0  0  0  0  0  0
    8.2500    9.0933    0.0000 C   0  0  0  0  0  0  0  0  0  0  0  0
    7.5000   10.3923    0.0000 C   0  0  0  0  0  0  0  0  0  0  0  0
    6.7500   11.6913    0.0000 F   0  0  0  0  0  0  0  0  0  0  0  0
    8.7990   11.1423    0.0000 F   0  0  0  0  0  0  0  0  0  0  0  0
    6.2010    9.6423    0.0000 F   0  0  0  0  0  0  0  0  0  0  0  0
    7.5000    7.7942    0.0000 C   0  0  0  0  0  0  0  0  0  0  0  0
    3.7500    3.8971    0.0000 C   0  0  0  0  0  0  0  0  0  0  0  0
   -0.7500    1.2990    0.0000 C   0  0  0  0  0  0  0  0  0  0  0  0
   -1.5000    0.0000    0.0000 C   0  0  0  0  0  0  0  0  0  0  0  0
   -0.7500   -1.2990    0.0000 C   0  0  0  0  0  0  0  0  0  0  0  0
   -1.2135   -2.7256    0.0000 C   0  0  0  0  0  0  0  0  0  0  0  0
   -2.6401   -3.1891    0.0000 C   0  0  0  0  0  0  0  0  0  0  0  0
   -2.9520   -4.6564    0.0000 C   0  0  0  0  0  0  0  0  0  0  0  0
   -1.9483   -5.7711    0.0000 C   0  0  0  0  0  0  0  0  0  0  0  0
   -2.6983   -7.0701    0.0000 C   0  0  0  0  0  0  0  0  0  0  0  0
   -4.1655   -6.7583    0.0000 C   0  0  0  0  0  0  0  0  0  0  0  0
   -4.3223   -5.2665    0.0000 N   0  0  0  0  0  0  0  0  0  0  0  0
  1  2  2  0
  2  3  1  0
  3  4  1  0
  4  5  2  0
  5  6  1  0
  6  7  1  0
  7  8  1  0
  8  9  2  0
  9 10  1  0
 10 11  2  0
 11 12  1  0
 12 13  1  0
 13 14  1  0
 14 15  2  0
 14 16  1  0
 16 17  2  0
 17 18  1  0
 18 19  1  0
 19 20  1  0
 20 21  1  0
 21 22  1  0
 22 23  1  0
 22 24  1  0
 24 25  1  0
 18 26  2  0
 26 27  1  0
 27 28  1  0
 28 29  1  0
 28 30  1  0
 28 31  1  0
 27 32  2  0
 12 33  2  0
  6 34  2  0
 34 35  1  0
 35 36  2  0
 36 37  1  0
 37 38  2  0
 38 39  1  0
 39 40  2  0
 40 41  1  0
 41 42  2  0
 42 43  1  0
 37  2  1  0
 43 39  1  0
 36  4  1  0
 33  8  1  0
 32 16  1  0
 25 19  1  0
M  END
>  <Compound_ID>  (355) 
CHEMBL2037213

>  <Molecule Name>  (355) 
nan

>  <Molecular Weight>  (355) 
587.6

>  <AlogP>  (355) 
6.48

>  <Smiles>  (355) 
O=C1Nc2cc(Nc3cccc(NC(=O)c4cc(N5CCC(O)CC5)cc(C(F)(F)F)c4)c3)ccc2/C1=C/c1ccc[nH]1

>  <Standard Type>  (355) 
IC50

>  <Standard Relation>  (355) 
'='

>  <Standard Units>  (355) 
nM

>  <Standard Value>  (355) 
3.0

>  <Assay ChEMBL ID>  (355) 
CHEMBL2038860

>  <Assay Description>  (355) 
Inhibition of TRKA by HTRF assay

>  <BAO Format ID>  (355) 
BAO_0000357

>  <BAO Label>  (355) 
single protein format

>  <Assay Organism>  (355) 
None

>  <Target ChEMBL ID>  (355) 
CHEMBL2815

>  <Target Name>  (355) 
Nerve growth factor receptor Trk-A

>  <Target Organism>  (355) 
Homo sapiens

>  <Target Type>  (355) 
SINGLE PROTEIN

>  <Document ChEMBL ID>  (355) 
CHEMBL2034853

>  <Source Description>  (355) 
Scientific Literature

>  <Document Journal>  (355) 
ACS Med Chem Lett

>  <Document Year>  (355) 
2012.0

>  <Active>  (355) 
1.0

>  <bits>  (355) 
<rdkit.DataStructs.cDataStructs.ExplicitBitVect object at 0x00000159F543D770>

>  <Group>  (355) 
G2

$$$$

     RDKit          2D

 43 48  0  0  0  0  0  0  0  0999 V2000
   -8.5978  -10.3610    0.0000 C   0  0  0  0  0  0  0  0  0  0  0  0
   -8.7546   -8.8692    0.0000 C   0  0  0  0  0  0  0  0  0  0  0  0
   -7.6399   -7.8655    0.0000 C   0  0  0  0  0  0  0  0  0  0  0  0
   -8.2500   -6.4952    0.0000 N   0  0  0  0  0  0  0  0  0  0  0  0
   -7.5000   -5.1962    0.0000 C   0  0  0  0  0  0  0  0  0  0  0  0
   -6.0000   -5.1962    0.0000 C   0  0  0  0  0  0  0  0  0  0  0  0
   -5.2500   -3.8971    0.0000 C   0  0  0  0  0  0  0  0  0  0  0  0
   -3.7500   -3.8971    0.0000 C   0  0  0  0  0  0  0  0  0  0  0  0
   -3.0000   -2.5981    0.0000 O   0  0  0  0  0  0  0  0  0  0  0  0
   -3.0000   -5.1962    0.0000 N   0  0  0  0  0  0  0  0  0  0  0  0
   -1.5000   -5.1962    0.0000 C   0  0  0  0  0  0  0  0  0  0  0  0
   -0.7500   -6.4952    0.0000 C   0  0  0  0  0  0  0  0  0  0  0  0
    0.7500   -6.4952    0.0000 C   0  0  0  0  0  0  0  0  0  0  0  0
    1.5000   -5.1962    0.0000 C   0  0  0  0  0  0  0  0  0  0  0  0
    0.7500   -3.8971    0.0000 C   0  0  0  0  0  0  0  0  0  0  0  0
    1.5000   -2.5981    0.0000 N   0  0  0  0  0  0  0  0  0  0  0  0
    0.7500   -1.2990    0.0000 C   0  0  0  0  0  0  0  0  0  0  0  0
    1.5000    0.0000    0.0000 C   0  0  0  0  0  0  0  0  0  0  0  0
    0.7500    1.2990    0.0000 C   0  0  0  0  0  0  0  0  0  0  0  0
   -0.7500    1.2990    0.0000 C   0  0  0  0  0  0  0  0  0  0  0  0
   -1.5000    0.0000    0.0000 C   0  0  0  0  0  0  0  0  0  0  0  0
   -0.7500   -1.2990    0.0000 C   0  0  0  0  0  0  0  0  0  0  0  0
   -2.9672    0.3119    0.0000 N   0  0  0  0  0  0  0  0  0  0  0  0
   -3.1240    1.8037    0.0000 C   0  0  0  0  0  0  0  0  0  0  0  0
   -4.4231    2.5537    0.0000 O   0  0  0  0  0  0  0  0  0  0  0  0
   -1.7537    2.4138    0.0000 C   0  0  0  0  0  0  0  0  0  0  0  0
   -1.4418    3.8810    0.0000 C   0  0  0  0  0  0  0  0  0  0  0  0
   -2.5565    4.8847    0.0000 C   0  0  0  0  0  0  0  0  0  0  0  0
   -4.0238    4.5728    0.0000 C   0  0  0  0  0  0  0  0  0  0  0  0
   -4.7738    5.8718    0.0000 C   0  0  0  0  0  0  0  0  0  0  0  0
   -3.7701    6.9866    0.0000 C   0  0  0  0  0  0  0  0  0  0  0  0
   -2.3998    6.3765    0.0000 N   0  0  0  0  0  0  0  0  0  0  0  0
   -1.1007    7.1265    0.0000 C   0  0  0  0  0  0  0  0  0  0  0  0
   -0.7500   -3.8971    0.0000 C   0  0  0  0  0  0  0  0  0  0  0  0
   -6.0000   -2.5981    0.0000 C   0  0  0  0  0  0  0  0  0  0  0  0
   -7.5000   -2.5981    0.0000 C   0  0  0  0  0  0  0  0  0  0  0  0
   -8.2500   -1.2990    0.0000 C   0  0  0  0  0  0  0  0  0  0  0  0
   -9.0000    0.0000    0.0000 F   0  0  0  0  0  0  0  0  0  0  0  0
   -6.9510   -0.5490    0.0000 F   0  0  0  0  0  0  0  0  0  0  0  0
   -9.5490   -2.0490    0.0000 F   0  0  0  0  0  0  0  0  0  0  0  0
   -8.2500   -3.8971    0.0000 C   0  0  0  0  0  0  0  0  0  0  0  0
   -9.7418   -6.6520    0.0000 C   0  0  0  0  0  0  0  0  0  0  0  0
  -10.0537   -8.1192    0.0000 N   0  0  0  0  0  0  0  0  0  0  0  0
  1  2  1  0
  2  3  2  0
  3  4  1  0
  4  5  1  0
  5  6  2  0
  6  7  1  0
  7  8  1  0
  8  9  2  0
  8 10  1  0
 10 11  1  0
 11 12  2  0
 12 13  1  0
 13 14  2  0
 14 15  1  0
 15 16  1  0
 16 17  1  0
 17 18  2  0
 18 19  1  0
 19 20  2  0
 20 21  1  0
 21 22  2  0
 21 23  1  0
 23 24  1  0
 24 25  2  0
 24 26  1  0
 26 27  2  0
 27 28  1  0
 28 29  2  0
 29 30  1  0
 30 31  2  0
 31 32  1  0
 32 33  1  0
 15 34  2  0
  7 35  2  0
 35 36  1  0
 36 37  1  0
 37 38  1  0
 37 39  1  0
 37 40  1  0
 36 41  2  0
  4 42  1  0
 42 43  2  0
 43  2  1  0
 41  5  1  0
 34 11  1  0
 22 17  1  0
 32 28  1  0
 26 20  1  0
M  END
>  <Compound_ID>  (356) 
CHEMBL2037217

>  <Molecule Name>  (356) 
nan

>  <Molecular Weight>  (356) 
582.59

>  <AlogP>  (356) 
7.03

>  <Smiles>  (356) 
Cc1cn(-c2cc(C(=O)Nc3cccc(Nc4ccc5c(c4)NC(=O)/C5=C\c4cccn4C)c3)cc(C(F)(F)F)c2)cn1

>  <Standard Type>  (356) 
IC50

>  <Standard Relation>  (356) 
'='

>  <Standard Units>  (356) 
nM

>  <Standard Value>  (356) 
49.0

>  <Assay ChEMBL ID>  (356) 
CHEMBL2038860

>  <Assay Description>  (356) 
Inhibition of TRKA by HTRF assay

>  <BAO Format ID>  (356) 
BAO_0000357

>  <BAO Label>  (356) 
single protein format

>  <Assay Organism>  (356) 
None

>  <Target ChEMBL ID>  (356) 
CHEMBL2815

>  <Target Name>  (356) 
Nerve growth factor receptor Trk-A

>  <Target Organism>  (356) 
Homo sapiens

>  <Target Type>  (356) 
SINGLE PROTEIN

>  <Document ChEMBL ID>  (356) 
CHEMBL2034853

>  <Source Description>  (356) 
Scientific Literature

>  <Document Journal>  (356) 
ACS Med Chem Lett

>  <Document Year>  (356) 
2012.0

>  <Active>  (356) 
1.0

>  <bits>  (356) 
<rdkit.DataStructs.cDataStructs.ExplicitBitVect object at 0x00000159F543DA10>

>  <Group>  (356) 
G2

$$$$

     RDKit          2D

 31 35  0  0  0  0  0  0  0  0999 V2000
   -3.7548   -2.1855    0.0000 O   0  0  0  0  0  0  0  0  0  0  0  0
   -2.6401   -3.1891    0.0000 C   0  0  0  0  0  0  0  0  0  0  0  0
   -2.9520   -4.6564    0.0000 N   0  0  0  0  0  0  0  0  0  0  0  0
   -4.3786   -5.1199    0.0000 C   0  0  0  0  0  0  0  0  0  0  0  0
   -4.1698   -6.6053    0.0000 C   0  0  0  0  0  0  0  0  0  0  0  0
   -2.7790   -7.1672    0.0000 O   0  0  0  0  0  0  0  0  0  0  0  0
   -5.3518   -7.5288    0.0000 O   0  0  0  0  0  0  0  0  0  0  0  0
   -5.8776   -5.0675    0.0000 C   0  0  0  0  0  0  0  0  0  0  0  0
   -5.0828   -3.7955    0.0000 C   0  0  0  0  0  0  0  0  0  0  0  0
   -1.2135   -2.7256    0.0000 C   0  0  0  0  0  0  0  0  0  0  0  0
   -0.0000   -3.6073    0.0000 C   0  0  0  0  0  0  0  0  0  0  0  0
    1.2135   -2.7256    0.0000 N   0  0  0  0  0  0  0  0  0  0  0  0
    0.7500   -1.2990    0.0000 N   0  0  0  0  0  0  0  0  0  0  0  0
    1.5000    0.0000    0.0000 C   0  0  0  0  0  0  0  0  0  0  0  0
    0.7500    1.2990    0.0000 C   0  0  0  0  0  0  0  0  0  0  0  0
   -0.7500    1.2990    0.0000 C   0  0  0  0  0  0  0  0  0  0  0  0
   -1.5000    2.5981    0.0000 N   0  0  0  0  0  0  0  0  0  0  0  0
   -2.9918    2.7549    0.0000 C   0  0  0  0  0  0  0  0  0  0  0  0
   -3.3037    4.2221    0.0000 C   0  0  0  0  0  0  0  0  0  0  0  0
   -2.0046    4.9721    0.0000 C   0  0  0  0  0  0  0  0  0  0  0  0
   -0.8899    3.9684    0.0000 C   0  0  0  0  0  0  0  0  0  0  0  0
    0.5773    4.2803    0.0000 C   0  0  0  0  0  0  0  0  0  0  0  0
    1.5810    3.1655    0.0000 C   0  0  0  0  0  0  0  0  0  0  0  0
    3.0482    3.4774    0.0000 C   0  0  0  0  0  0  0  0  0  0  0  0
    4.0519    2.3627    0.0000 F   0  0  0  0  0  0  0  0  0  0  0  0
    3.5118    4.9040    0.0000 C   0  0  0  0  0  0  0  0  0  0  0  0
    2.5081    6.0187    0.0000 C   0  0  0  0  0  0  0  0  0  0  0  0
    1.0409    5.7068    0.0000 C   0  0  0  0  0  0  0  0  0  0  0  0
    0.0372    6.8216    0.0000 F   0  0  0  0  0  0  0  0  0  0  0  0
   -1.5000    0.0000    0.0000 N   0  0  0  0  0  0  0  0  0  0  0  0
   -0.7500   -1.2990    0.0000 C   0  0  0  0  0  0  0  0  0  0  0  0
  1  2  2  0
  2  3  1  0
  3  4  1  0
  4  5  1  0
  5  6  2  0
  5  7  1  0
  4  8  1  0
  8  9  1  0
  2 10  1  0
 10 11  1  0
 11 12  2  0
 12 13  1  0
 13 14  1  0
 14 15  2  0
 15 16  1  0
 16 17  1  0
 17 18  1  0
 18 19  1  0
 19 20  1  0
 20 21  1  0
 21 22  1  0
 22 23  2  0
 23 24  1  0
 24 25  1  0
 24 26  2  0
 26 27  1  0
 27 28  2  0
 28 29  1  0
 16 30  2  0
 30 31  1  0
  9  4  1  0
 31 10  2  0
 31 13  1  0
 21 17  1  0
 28 22  1  0
M  END
>  <Compound_ID>  (357) 
CHEMBL3675959

>  <Molecule Name>  (357) 
nan

>  <Molecular Weight>  (357) 
427.41

>  <AlogP>  (357) 
2.7

>  <Smiles>  (357) 
O=C(NC1(C(=O)O)CC1)c1cnn2ccc(N3CCCC3c3cc(F)ccc3F)nc12

>  <Standard Type>  (357) 
IC50

>  <Standard Relation>  (357) 
'='

>  <Standard Units>  (357) 
nM

>  <Standard Value>  (357) 
21.05

>  <Assay ChEMBL ID>  (357) 
CHEMBL3887070

>  <Assay Description>  (357) 
ELISA Assay: An enzyme-linked immunosorbant assay (ELISA) was used to assess TrkA kinase activity in the presence of inhibitors. Immulon 4HBX 384-well microtiter plates (Thermo part #8755) were coated with a 0.025 mg/mL solution of poly (Glu, Ala, Tyr; 6:3:1; Sigma P3899). Various concentrations of test compound, 2.5 nM TrkA (Invitrogen Corp., histidine-tagged recombinant human TrkA, cytoplasmic domain), and 500 uM ATP were incubated for 25 minutes at ambient temperature in the coated plates while shaking The assay buffer consisted of 25 mM MOPS pH 7.5, 0.005% (v/v) Triton X-100 and 5 mM MgCl2. The reaction mixture was removed from the plate by washing with PBS containing 0.1% (v/v) Tween 20. The phosphorylated reaction product was detected using 0.2 ug/mL of a phosphotyrosine specific monoclonal antibody (clone PY20) conjugated to horseradish peroxidase in conjunction with the TMB Peroxidase Substrate System (KPL).

>  <BAO Format ID>  (357) 
BAO_0000357

>  <BAO Label>  (357) 
single protein format

>  <Assay Organism>  (357) 
None

>  <Target ChEMBL ID>  (357) 
CHEMBL2815

>  <Target Name>  (357) 
Nerve growth factor receptor Trk-A

>  <Target Organism>  (357) 
Homo sapiens

>  <Target Type>  (357) 
SINGLE PROTEIN

>  <Document ChEMBL ID>  (357) 
CHEMBL3638907

>  <Source Description>  (357) 
BindingDB Database

>  <Document Journal>  (357) 
nan

>  <Document Year>  (357) 
2014.0

>  <Active>  (357) 
1.0

>  <bits>  (357) 
<rdkit.DataStructs.cDataStructs.ExplicitBitVect object at 0x00000159F543E730>

>  <Group>  (357) 
G2

$$$$

     RDKit          2D

 35 39  0  0  0  0  0  0  0  0999 V2000
    7.3934   -3.6905    0.0000 C   0  0  0  0  0  0  0  0  0  0  0  0
    5.9262   -3.3786    0.0000 O   0  0  0  0  0  0  0  0  0  0  0  0
    5.4627   -1.9520    0.0000 C   0  0  0  0  0  0  0  0  0  0  0  0
    6.4664   -0.8373    0.0000 N   0  0  0  0  0  0  0  0  0  0  0  0
    6.0029    0.5893    0.0000 C   0  0  0  0  0  0  0  0  0  0  0  0
    4.5356    0.9012    0.0000 C   0  0  0  0  0  0  0  0  0  0  0  0
    4.0721    2.3277    0.0000 F   0  0  0  0  0  0  0  0  0  0  0  0
    3.5320   -0.2136    0.0000 C   0  0  0  0  0  0  0  0  0  0  0  0
    3.9955   -1.6402    0.0000 C   0  0  0  0  0  0  0  0  0  0  0  0
    2.9918   -2.7549    0.0000 C   0  0  0  0  0  0  0  0  0  0  0  0
    3.3037   -4.2221    0.0000 C   0  0  0  0  0  0  0  0  0  0  0  0
    2.0046   -4.9721    0.0000 C   0  0  0  0  0  0  0  0  0  0  0  0
    0.8899   -3.9684    0.0000 C   0  0  0  0  0  0  0  0  0  0  0  0
    1.5000   -2.5981    0.0000 N   0  0  0  0  0  0  0  0  0  0  0  0
    0.7500   -1.2990    0.0000 C   0  0  0  0  0  0  0  0  0  0  0  0
    1.5000    0.0000    0.0000 C   0  0  0  0  0  0  0  0  0  0  0  0
    0.7500    1.2990    0.0000 C   0  0  0  0  0  0  0  0  0  0  0  0
   -0.7500    1.2990    0.0000 N   0  0  0  0  0  0  0  0  0  0  0  0
   -1.7537    2.4138    0.0000 N   0  0  0  0  0  0  0  0  0  0  0  0
   -3.1240    1.8037    0.0000 C   0  0  0  0  0  0  0  0  0  0  0  0
   -2.9672    0.3119    0.0000 C   0  0  0  0  0  0  0  0  0  0  0  0
   -4.0819   -0.6918    0.0000 C   0  0  0  0  0  0  0  0  0  0  0  0
   -3.7701   -2.1590    0.0000 O   0  0  0  0  0  0  0  0  0  0  0  0
   -5.5085   -0.2283    0.0000 N   0  0  0  0  0  0  0  0  0  0  0  0
   -6.6232   -1.2320    0.0000 C   0  0  0  0  0  0  0  0  0  0  0  0
   -8.0498   -0.7685    0.0000 C   0  0  0  0  0  0  0  0  0  0  0  0
   -9.1645   -1.7722    0.0000 C   0  0  0  0  0  0  0  0  0  0  0  0
   -8.8527   -3.2394    0.0000 N   0  0  0  0  0  0  0  0  0  0  0  0
   -9.9674   -4.2431    0.0000 C   0  0  0  0  0  0  0  0  0  0  0  0
  -11.3940   -3.7796    0.0000 C   0  0  0  0  0  0  0  0  0  0  0  0
  -12.5087   -4.7833    0.0000 O   0  0  0  0  0  0  0  0  0  0  0  0
   -7.4261   -3.7029    0.0000 C   0  0  0  0  0  0  0  0  0  0  0  0
   -6.3114   -2.6992    0.0000 C   0  0  0  0  0  0  0  0  0  0  0  0
   -1.5000    0.0000    0.0000 C   0  0  0  0  0  0  0  0  0  0  0  0
   -0.7500   -1.2990    0.0000 N   0  0  0  0  0  0  0  0  0  0  0  0
  1  2  1  0
  2  3  1  0
  3  4  2  0
  4  5  1  0
  5  6  2  0
  6  7  1  0
  6  8  1  0
  8  9  2  0
 10  9  1  1
 10 11  1  0
 11 12  1  0
 12 13  1  0
 13 14  1  0
 14 15  1  0
 15 16  1  0
 16 17  2  0
 17 18  1  0
 18 19  1  0
 19 20  2  0
 20 21  1  0
 21 22  1  0
 22 23  2  0
 22 24  1  0
 24 25  1  0
 25 26  1  0
 26 27  1  0
 27 28  1  0
 28 29  1  0
 29 30  1  0
 30 31  1  0
 28 32  1  0
 32 33  1  0
 21 34  2  0
 34 35  1  0
  9  3  1  0
 14 10  1  0
 35 15  2  0
 34 18  1  0
 33 25  1  0
M  END
>  <Compound_ID>  (358) 
CHEMBL3676030

>  <Molecule Name>  (358) 
nan

>  <Molecular Weight>  (358) 
483.55

>  <AlogP>  (358) 
1.8

>  <Smiles>  (358) 
COc1ncc(F)cc1[C@H]1CCCN1c1ccn2ncc(C(=O)NC3CCN(CCO)CC3)c2n1

>  <Standard Type>  (358) 
IC50

>  <Standard Relation>  (358) 
'='

>  <Standard Units>  (358) 
nM

>  <Standard Value>  (358) 
4.3

>  <Assay ChEMBL ID>  (358) 
CHEMBL3887070

>  <Assay Description>  (358) 
ELISA Assay: An enzyme-linked immunosorbant assay (ELISA) was used to assess TrkA kinase activity in the presence of inhibitors. Immulon 4HBX 384-well microtiter plates (Thermo part #8755) were coated with a 0.025 mg/mL solution of poly (Glu, Ala, Tyr; 6:3:1; Sigma P3899). Various concentrations of test compound, 2.5 nM TrkA (Invitrogen Corp., histidine-tagged recombinant human TrkA, cytoplasmic domain), and 500 uM ATP were incubated for 25 minutes at ambient temperature in the coated plates while shaking The assay buffer consisted of 25 mM MOPS pH 7.5, 0.005% (v/v) Triton X-100 and 5 mM MgCl2. The reaction mixture was removed from the plate by washing with PBS containing 0.1% (v/v) Tween 20. The phosphorylated reaction product was detected using 0.2 ug/mL of a phosphotyrosine specific monoclonal antibody (clone PY20) conjugated to horseradish peroxidase in conjunction with the TMB Peroxidase Substrate System (KPL).

>  <BAO Format ID>  (358) 
BAO_0000357

>  <BAO Label>  (358) 
single protein format

>  <Assay Organism>  (358) 
None

>  <Target ChEMBL ID>  (358) 
CHEMBL2815

>  <Target Name>  (358) 
Nerve growth factor receptor Trk-A

>  <Target Organism>  (358) 
Homo sapiens

>  <Target Type>  (358) 
SINGLE PROTEIN

>  <Document ChEMBL ID>  (358) 
CHEMBL3638907

>  <Source Description>  (358) 
BindingDB Database

>  <Document Journal>  (358) 
nan

>  <Document Year>  (358) 
2014.0

>  <Active>  (358) 
1.0

>  <bits>  (358) 
<rdkit.DataStructs.cDataStructs.ExplicitBitVect object at 0x00000159F543FB50>

>  <Group>  (358) 
G2

$$$$

     RDKit          2D

 29 33  0  0  0  0  0  0  0  0999 V2000
   -4.8421   -3.6933    0.0000 C   0  0  0  0  0  0  0  0  0  0  0  0
   -4.3786   -5.1199    0.0000 C   0  0  0  0  0  0  0  0  0  0  0  0
   -2.9520   -4.6564    0.0000 N   0  0  0  0  0  0  0  0  0  0  0  0
   -2.6401   -3.1891    0.0000 C   0  0  0  0  0  0  0  0  0  0  0  0
   -3.7548   -2.1855    0.0000 O   0  0  0  0  0  0  0  0  0  0  0  0
   -1.2135   -2.7256    0.0000 C   0  0  0  0  0  0  0  0  0  0  0  0
   -0.0000   -3.6073    0.0000 C   0  0  0  0  0  0  0  0  0  0  0  0
    1.2135   -2.7256    0.0000 N   0  0  0  0  0  0  0  0  0  0  0  0
    0.7500   -1.2990    0.0000 N   0  0  0  0  0  0  0  0  0  0  0  0
    1.5000    0.0000    0.0000 C   0  0  0  0  0  0  0  0  0  0  0  0
    0.7500    1.2990    0.0000 C   0  0  0  0  0  0  0  0  0  0  0  0
   -0.7500    1.2990    0.0000 C   0  0  0  0  0  0  0  0  0  0  0  0
   -1.5000    2.5981    0.0000 N   0  0  0  0  0  0  0  0  0  0  0  0
   -2.9918    2.7549    0.0000 C   0  0  0  0  0  0  0  0  0  0  0  0
   -3.3037    4.2221    0.0000 C   0  0  0  0  0  0  0  0  0  0  0  0
   -2.0046    4.9721    0.0000 C   0  0  0  0  0  0  0  0  0  0  0  0
   -0.8899    3.9684    0.0000 C   0  0  0  0  0  0  0  0  0  0  0  0
    0.5773    4.2803    0.0000 C   0  0  0  0  0  0  0  0  0  0  0  0
    1.5810    3.1655    0.0000 C   0  0  0  0  0  0  0  0  0  0  0  0
    3.0482    3.4774    0.0000 N   0  0  0  0  0  0  0  0  0  0  0  0
    3.5118    4.9040    0.0000 C   0  0  0  0  0  0  0  0  0  0  0  0
    2.5081    6.0187    0.0000 C   0  0  0  0  0  0  0  0  0  0  0  0
    2.9716    7.4453    0.0000 F   0  0  0  0  0  0  0  0  0  0  0  0
    1.0409    5.7068    0.0000 C   0  0  0  0  0  0  0  0  0  0  0  0
   -1.5000    0.0000    0.0000 N   0  0  0  0  0  0  0  0  0  0  0  0
   -0.7500   -1.2990    0.0000 C   0  0  0  0  0  0  0  0  0  0  0  0
   -3.9150   -6.5465    0.0000 C   0  0  0  0  0  0  0  0  0  0  0  0
   -5.3416   -7.0100    0.0000 C   0  0  0  0  0  0  0  0  0  0  0  0
   -5.8051   -5.5834    0.0000 C   0  0  0  0  0  0  0  0  0  0  0  0
  1  2  1  0
  2  3  1  0
  3  4  1  0
  4  5  2  0
  4  6  1  0
  6  7  1  0
  7  8  2  0
  8  9  1  0
  9 10  1  0
 10 11  2  0
 11 12  1  0
 12 13  1  0
 13 14  1  0
 14 15  1  0
 15 16  1  0
 16 17  1  0
 17 18  1  0
 18 19  2  0
 19 20  1  0
 20 21  2  0
 21 22  1  0
 22 23  1  0
 22 24  2  0
 12 25  2  0
 25 26  1  0
  2 27  1  0
 27 28  1  0
 28 29  1  0
 29  2  1  0
 26  6  2  0
 26  9  1  0
 17 13  1  0
 24 18  1  0
M  END
>  <Compound_ID>  (359) 
CHEMBL3675976

>  <Molecule Name>  (359) 
nan

>  <Molecular Weight>  (359) 
394.45

>  <AlogP>  (359) 
3.28

>  <Smiles>  (359) 
CC1(NC(=O)c2cnn3ccc(N4CCCC4c4cncc(F)c4)nc23)CCC1

>  <Standard Type>  (359) 
IC50

>  <Standard Relation>  (359) 
'='

>  <Standard Units>  (359) 
nM

>  <Standard Value>  (359) 
5.2

>  <Assay ChEMBL ID>  (359) 
CHEMBL3887070

>  <Assay Description>  (359) 
ELISA Assay: An enzyme-linked immunosorbant assay (ELISA) was used to assess TrkA kinase activity in the presence of inhibitors. Immulon 4HBX 384-well microtiter plates (Thermo part #8755) were coated with a 0.025 mg/mL solution of poly (Glu, Ala, Tyr; 6:3:1; Sigma P3899). Various concentrations of test compound, 2.5 nM TrkA (Invitrogen Corp., histidine-tagged recombinant human TrkA, cytoplasmic domain), and 500 uM ATP were incubated for 25 minutes at ambient temperature in the coated plates while shaking The assay buffer consisted of 25 mM MOPS pH 7.5, 0.005% (v/v) Triton X-100 and 5 mM MgCl2. The reaction mixture was removed from the plate by washing with PBS containing 0.1% (v/v) Tween 20. The phosphorylated reaction product was detected using 0.2 ug/mL of a phosphotyrosine specific monoclonal antibody (clone PY20) conjugated to horseradish peroxidase in conjunction with the TMB Peroxidase Substrate System (KPL).

>  <BAO Format ID>  (359) 
BAO_0000357

>  <BAO Label>  (359) 
single protein format

>  <Assay Organism>  (359) 
None

>  <Target ChEMBL ID>  (359) 
CHEMBL2815

>  <Target Name>  (359) 
Nerve growth factor receptor Trk-A

>  <Target Organism>  (359) 
Homo sapiens

>  <Target Type>  (359) 
SINGLE PROTEIN

>  <Document ChEMBL ID>  (359) 
CHEMBL3638907

>  <Source Description>  (359) 
BindingDB Database

>  <Document Journal>  (359) 
nan

>  <Document Year>  (359) 
2014.0

>  <Active>  (359) 
1.0

>  <bits>  (359) 
<rdkit.DataStructs.cDataStructs.ExplicitBitVect object at 0x00000159F543D5B0>

>  <Group>  (359) 
G2

$$$$

     RDKit          2D

 42 47  0  0  0  0  0  0  0  0999 V2000
    0.6482    7.5579    0.0000 C   0  0  0  0  0  0  0  0  0  0  0  0
    0.8050    6.0661    0.0000 O   0  0  0  0  0  0  0  0  0  0  0  0
   -0.4086    5.1844    0.0000 C   0  0  0  0  0  0  0  0  0  0  0  0
   -0.4086    3.6844    0.0000 C   0  0  0  0  0  0  0  0  0  0  0  0
    0.7062    2.6807    0.0000 C   0  0  0  0  0  0  0  0  0  0  0  0
    0.3943    1.2135    0.0000 C   0  0  0  0  0  0  0  0  0  0  0  0
    1.2760    0.0000    0.0000 N   0  0  0  0  0  0  0  0  0  0  0  0
    0.3943   -1.2135    0.0000 C   0  0  0  0  0  0  0  0  0  0  0  0
    0.8578   -2.6401    0.0000 C   0  0  0  0  0  0  0  0  0  0  0  0
   -0.1459   -3.7548    0.0000 C   0  0  0  0  0  0  0  0  0  0  0  0
   -1.6131   -3.4430    0.0000 N   0  0  0  0  0  0  0  0  0  0  0  0
   -2.6168   -4.5577    0.0000 C   0  0  0  0  0  0  0  0  0  0  0  0
   -4.0840   -4.2458    0.0000 C   0  0  0  0  0  0  0  0  0  0  0  0
   -2.1533   -5.9843    0.0000 C   0  0  0  0  0  0  0  0  0  0  0  0
   -3.1570   -7.0990    0.0000 C   0  0  0  0  0  0  0  0  0  0  0  0
   -4.6242   -6.7871    0.0000 C   0  0  0  0  0  0  0  0  0  0  0  0
   -5.0877   -5.3605    0.0000 F   0  0  0  0  0  0  0  0  0  0  0  0
   -5.6279   -7.9018    0.0000 C   0  0  0  0  0  0  0  0  0  0  0  0
   -7.0951   -7.5900    0.0000 F   0  0  0  0  0  0  0  0  0  0  0  0
   -5.1644   -9.3284    0.0000 C   0  0  0  0  0  0  0  0  0  0  0  0
   -3.6971   -9.6403    0.0000 C   0  0  0  0  0  0  0  0  0  0  0  0
   -3.2336  -11.0669    0.0000 F   0  0  0  0  0  0  0  0  0  0  0  0
   -2.6934   -8.5256    0.0000 C   0  0  0  0  0  0  0  0  0  0  0  0
   -1.2262   -8.8374    0.0000 F   0  0  0  0  0  0  0  0  0  0  0  0
    0.3177   -5.1814    0.0000 C   0  0  0  0  0  0  0  0  0  0  0  0
    1.7849   -5.4933    0.0000 C   0  0  0  0  0  0  0  0  0  0  0  0
    2.7886   -4.3786    0.0000 N   0  0  0  0  0  0  0  0  0  0  0  0
    2.3250   -2.9520    0.0000 C   0  0  0  0  0  0  0  0  0  0  0  0
    3.3287   -1.8373    0.0000 O   0  0  0  0  0  0  0  0  0  0  0  0
   -1.0323   -0.7500    0.0000 N   0  0  0  0  0  0  0  0  0  0  0  0
   -1.0323    0.7500    0.0000 C   0  0  0  0  0  0  0  0  0  0  0  0
   -2.1470    1.7537    0.0000 C   0  0  0  0  0  0  0  0  0  0  0  0
   -1.8351    3.2209    0.0000 C   0  0  0  0  0  0  0  0  0  0  0  0
   -2.7168    4.4344    0.0000 C   0  0  0  0  0  0  0  0  0  0  0  0
   -4.2168    4.4344    0.0000 O   0  0  0  0  0  0  0  0  0  0  0  0
   -1.8351    5.6480    0.0000 N   0  0  0  0  0  0  0  0  0  0  0  0
   -2.2987    7.0746    0.0000 C   0  0  0  0  0  0  0  0  0  0  0  0
   -1.2950    8.1893    0.0000 C   0  0  0  0  0  0  0  0  0  0  0  0
   -1.7585    9.6159    0.0000 C   0  0  0  0  0  0  0  0  0  0  0  0
   -3.2257    9.9277    0.0000 C   0  0  0  0  0  0  0  0  0  0  0  0
   -4.2294    8.8130    0.0000 N   0  0  0  0  0  0  0  0  0  0  0  0
   -3.7659    7.3864    0.0000 C   0  0  0  0  0  0  0  0  0  0  0  0
  1  2  1  0
  2  3  1  0
  3  4  1  0
  4  5  2  0
  5  6  1  0
  6  7  1  0
  7  8  1  0
  8  9  1  0
  9 10  2  0
 10 11  1  0
 11 12  1  0
 12 13  1  0
 12 14  1  0
 14 15  1  0
 15 16  2  0
 16 17  1  0
 16 18  1  0
 18 19  1  0
 18 20  2  0
 20 21  1  0
 21 22  1  0
 21 23  2  0
 23 24  1  0
 10 25  1  0
 25 26  2  0
 26 27  1  0
 27 28  1  0
 28 29  2  0
  8 30  2  0
 30 31  1  0
 31 32  1  0
 32 33  2  0
 33 34  1  0
 34 35  2  0
 34 36  1  0
 36 37  1  0
 37 38  2  0
 38 39  1  0
 39 40  2  0
 40 41  1  0
 41 42  2  0
 36  3  1  0
 42 37  1  0
 33  4  1  0
 31  6  2  0
 28  9  1  0
 23 15  1  0
M  END
>  <Compound_ID>  (360) 
CHEMBL3671315

>  <Molecule Name>  (360) 
nan

>  <Molecular Weight>  (360) 
578.53

>  <AlogP>  (360) 
5.22

>  <Smiles>  (360) 
COC1c2cc3[nH]c(-c4c(NC(C)Cc5c(F)c(F)cc(F)c5F)cc[nH]c4=O)nc3cc2C(=O)N1c1cccnc1

>  <Standard Type>  (360) 
IC50

>  <Standard Relation>  (360) 
'='

>  <Standard Units>  (360) 
nM

>  <Standard Value>  (360) 
41.61

>  <Assay ChEMBL ID>  (360) 
CHEMBL3887072

>  <Assay Description>  (360) 
In Vitro Kinase Activity Assay: Compounds to be tested were dissolved in 100% DMSO in a range of concentrations from 10-8 to 10-3 M including negative control (DMSO), then diluted with Kinase Buffer (50 mM HEPES, pH 7.5, 1 mM EGTA, 10 mM MgCl2, 0.01% Tween-20, and 2 mM DTT, added fresh) to 4x the final concentration. The final curve included 11 concentrations (10-11 to 10-5 M) plus negative control DMSO tested in triplicate.Kinase and ATP concentrations necessary for optimal activity were determined in separate experiments. (Table 2). Briefly, increasing concentrations of kinase were incubated in a fixed concentration of ATP (200 uM) in Kinase Buffer to determine maximal activity at various time points (30-120 min). The concentration of kinase that resulted in maximal activity with the shortest incubation time was then incubated in Kinase Buffer with increasing concentrations of ATP.

>  <BAO Format ID>  (360) 
BAO_0000357

>  <BAO Label>  (360) 
single protein format

>  <Assay Organism>  (360) 
None

>  <Target ChEMBL ID>  (360) 
CHEMBL2815

>  <Target Name>  (360) 
Nerve growth factor receptor Trk-A

>  <Target Organism>  (360) 
Homo sapiens

>  <Target Type>  (360) 
SINGLE PROTEIN

>  <Document ChEMBL ID>  (360) 
CHEMBL3639188

>  <Source Description>  (360) 
BindingDB Database

>  <Document Journal>  (360) 
nan

>  <Document Year>  (360) 
2014.0

>  <Active>  (360) 
1.0

>  <bits>  (360) 
<rdkit.DataStructs.cDataStructs.ExplicitBitVect object at 0x00000159F543DAF0>

>  <Group>  (360) 
G2

$$$$

     RDKit          2D

 42 47  0  0  0  0  0  0  0  0999 V2000
  -10.9341    7.7749    0.0000 C   0  0  0  0  0  0  0  0  0  0  0  0
  -11.2460    6.3076    0.0000 O   0  0  0  0  0  0  0  0  0  0  0  0
  -10.1313    5.3039    0.0000 C   0  0  0  0  0  0  0  0  0  0  0  0
   -8.7047    5.7675    0.0000 C   0  0  0  0  0  0  0  0  0  0  0  0
   -7.5900    4.7638    0.0000 C   0  0  0  0  0  0  0  0  0  0  0  0
   -7.9018    3.2966    0.0000 C   0  0  0  0  0  0  0  0  0  0  0  0
   -6.7871    2.2929    0.0000 C   0  0  0  0  0  0  0  0  0  0  0  0
   -7.0990    0.8256    0.0000 O   0  0  0  0  0  0  0  0  0  0  0  0
   -5.9843   -0.1781    0.0000 C   0  0  0  0  0  0  0  0  0  0  0  0
   -6.2961   -1.6453    0.0000 C   0  0  0  0  0  0  0  0  0  0  0  0
   -5.1814   -2.6490    0.0000 C   0  0  0  0  0  0  0  0  0  0  0  0
   -3.7548   -2.1855    0.0000 C   0  0  0  0  0  0  0  0  0  0  0  0
   -2.6401   -3.1891    0.0000 C   0  0  0  0  0  0  0  0  0  0  0  0
   -1.2135   -2.7256    0.0000 N   0  0  0  0  0  0  0  0  0  0  0  0
   -0.0000   -3.6073    0.0000 C   0  0  0  0  0  0  0  0  0  0  0  0
    0.0000   -5.1073    0.0000 N   0  0  0  0  0  0  0  0  0  0  0  0
    1.2135   -2.7256    0.0000 N   0  0  0  0  0  0  0  0  0  0  0  0
    0.7500   -1.2990    0.0000 C   0  0  0  0  0  0  0  0  0  0  0  0
    1.5000    0.0000    0.0000 C   0  0  0  0  0  0  0  0  0  0  0  0
    0.7500    1.2990    0.0000 C   0  0  0  0  0  0  0  0  0  0  0  0
    1.5000    2.5981    0.0000 C   0  0  0  0  0  0  0  0  0  0  0  0
    0.8899    3.9684    0.0000 C   0  0  0  0  0  0  0  0  0  0  0  0
    2.0046    4.9721    0.0000 N   0  0  0  0  0  0  0  0  0  0  0  0
    3.3037    4.2221    0.0000 N   0  0  0  0  0  0  0  0  0  0  0  0
    4.6740    4.8322    0.0000 C   0  0  0  0  0  0  0  0  0  0  0  0
    5.8875    3.9505    0.0000 C   0  0  0  0  0  0  0  0  0  0  0  0
    7.2578    4.5606    0.0000 N   0  0  0  0  0  0  0  0  0  0  0  0
    8.4713    3.6789    0.0000 C   0  0  0  0  0  0  0  0  0  0  0  0
    9.8417    4.2890    0.0000 C   0  0  0  0  0  0  0  0  0  0  0  0
    9.9984    5.7808    0.0000 O   0  0  0  0  0  0  0  0  0  0  0  0
    8.7849    6.6625    0.0000 C   0  0  0  0  0  0  0  0  0  0  0  0
    7.4146    6.0524    0.0000 C   0  0  0  0  0  0  0  0  0  0  0  0
    2.9918    2.7549    0.0000 C   0  0  0  0  0  0  0  0  0  0  0  0
   -0.7500    1.2990    0.0000 C   0  0  0  0  0  0  0  0  0  0  0  0
   -1.5000    0.0000    0.0000 C   0  0  0  0  0  0  0  0  0  0  0  0
   -0.7500   -1.2990    0.0000 C   0  0  0  0  0  0  0  0  0  0  0  0
   -3.4430   -0.7182    0.0000 C   0  0  0  0  0  0  0  0  0  0  0  0
   -4.5577    0.2855    0.0000 C   0  0  0  0  0  0  0  0  0  0  0  0
   -4.2458    1.7527    0.0000 O   0  0  0  0  0  0  0  0  0  0  0  0
   -5.3605    2.7564    0.0000 C   0  0  0  0  0  0  0  0  0  0  0  0
   -9.3284    2.8330    0.0000 C   0  0  0  0  0  0  0  0  0  0  0  0
  -10.4431    3.8367    0.0000 C   0  0  0  0  0  0  0  0  0  0  0  0
  1  2  1  0
  2  3  1  0
  3  4  2  0
  4  5  1  0
  5  6  2  0
  6  7  1  0
  7  8  1  0
  8  9  1  0
  9 10  2  0
 10 11  1  0
 11 12  2  0
 12 13  1  0
 13 14  1  0
 14 15  1  0
 15 16  1  0
 15 17  2  0
 17 18  1  0
 18 19  2  0
 19 20  1  0
 20 21  1  0
 21 22  1  0
 22 23  2  0
 23 24  1  0
 24 25  1  0
 25 26  1  0
 26 27  1  0
 27 28  1  0
 28 29  1  0
 29 30  1  0
 30 31  1  0
 31 32  1  0
 24 33  1  0
 20 34  2  0
 34 35  1  0
 35 36  2  0
 12 37  1  0
 37 38  2  0
 38 39  1  0
 39 40  1  0
  6 41  1  0
 41 42  2  0
 42  3  1  0
 38  9  1  0
 36 14  1  0
 36 18  1  0
 33 21  2  0
 32 27  1  0
M  END
>  <Compound_ID>  (361) 
CHEMBL3673439

>  <Molecule Name>  (361) 
nan

>  <Molecular Weight>  (361) 
568.68

>  <AlogP>  (361) 
4.46

>  <Smiles>  (361) 
COc1ccc(COc2ccc(Cn3c(N)nc4cc(-c5cnn(CCN6CCOCC6)c5)ccc43)cc2OC)cc1

>  <Standard Type>  (361) 
IC50

>  <Standard Relation>  (361) 
'='

>  <Standard Units>  (361) 
nM

>  <Standard Value>  (361) 
3.0

>  <Assay ChEMBL ID>  (361) 
CHEMBL3887112

>  <Assay Description>  (361) 
Inhibition Assay: Reagents and consumables were purchased from Sigma Aldrich, Carna Biosciences, or Caliper Life Sciences. All assay reaction conditions for IC50 determinations were within the linear range with respect to time and enzyme concentration. In a 384 well polypropylene plate, TrkA (0.4 nM, Carna 08-186) was pre-incubated in a 100 mM Hepes-NaOH pH 7.5 buffer containing 0.01% Triton X-100, 10 mM MgCl2, 0.1% BSA, 1 mM DTT, 10 uM sodium orthovanadate and 10 uM beta-glycerophosphate and compound with a concentration of 2.5% DMSO for 15 minutes at room temperature. The reaction was initiated with an equal volume of peptide substrate (Caliper Life Sciences catalog no. 760430) and ATP in the aforementioned buffer. The final concentrations in the reaction were 200 pM TrkA, 1.5 uM peptide substrate and 55 uM ATP (ATP Km). The reaction was incubated at room temperature for 180 minutes and terminated with a buffer containing excess EDTA (100 mM Hepes-NaOH pH 7.5, 0.02% Brij.

>  <BAO Format ID>  (361) 
BAO_0000357

>  <BAO Label>  (361) 
single protein format

>  <Assay Organism>  (361) 
None

>  <Target ChEMBL ID>  (361) 
CHEMBL2815

>  <Target Name>  (361) 
Nerve growth factor receptor Trk-A

>  <Target Organism>  (361) 
Homo sapiens

>  <Target Type>  (361) 
SINGLE PROTEIN

>  <Document ChEMBL ID>  (361) 
CHEMBL3638818

>  <Source Description>  (361) 
BindingDB Database

>  <Document Journal>  (361) 
nan

>  <Document Year>  (361) 
2015.0

>  <Active>  (361) 
1.0

>  <bits>  (361) 
<rdkit.DataStructs.cDataStructs.ExplicitBitVect object at 0x00000159F543CD60>

>  <Group>  (361) 
G2

$$$$

     RDKit          2D

 32 36  0  0  0  0  0  0  0  0999 V2000
   -1.8373   -5.6601    0.0000 O   0  0  0  0  0  0  0  0  0  0  0  0
   -2.9520   -4.6564    0.0000 C   0  0  0  0  0  0  0  0  0  0  0  0
   -2.6401   -3.1891    0.0000 N   0  0  0  0  0  0  0  0  0  0  0  0
   -1.2135   -2.7256    0.0000 C   0  0  0  0  0  0  0  0  0  0  0  0
   -0.0000   -3.6073    0.0000 C   0  0  0  0  0  0  0  0  0  0  0  0
    1.2135   -2.7256    0.0000 N   0  0  0  0  0  0  0  0  0  0  0  0
    0.7500   -1.2990    0.0000 N   0  0  0  0  0  0  0  0  0  0  0  0
    1.5000    0.0000    0.0000 C   0  0  0  0  0  0  0  0  0  0  0  0
    0.7500    1.2990    0.0000 C   0  0  0  0  0  0  0  0  0  0  0  0
   -0.7500    1.2990    0.0000 C   0  0  0  0  0  0  0  0  0  0  0  0
   -1.5000    2.5981    0.0000 N   0  0  0  0  0  0  0  0  0  0  0  0
   -2.9918    2.7549    0.0000 C   0  0  0  0  0  0  0  0  0  0  0  0
   -3.3037    4.2221    0.0000 C   0  0  0  0  0  0  0  0  0  0  0  0
   -2.0046    4.9721    0.0000 C   0  0  0  0  0  0  0  0  0  0  0  0
   -0.8899    3.9684    0.0000 C   0  0  0  0  0  0  0  0  0  0  0  0
    0.5773    4.2803    0.0000 C   0  0  0  0  0  0  0  0  0  0  0  0
    1.5810    3.1655    0.0000 C   0  0  0  0  0  0  0  0  0  0  0  0
    3.0482    3.4774    0.0000 C   0  0  0  0  0  0  0  0  0  0  0  0
    4.0519    2.3627    0.0000 F   0  0  0  0  0  0  0  0  0  0  0  0
    3.5118    4.9040    0.0000 C   0  0  0  0  0  0  0  0  0  0  0  0
    2.5081    6.0187    0.0000 C   0  0  0  0  0  0  0  0  0  0  0  0
    1.0409    5.7068    0.0000 C   0  0  0  0  0  0  0  0  0  0  0  0
    0.0372    6.8216    0.0000 F   0  0  0  0  0  0  0  0  0  0  0  0
   -1.5000    0.0000    0.0000 N   0  0  0  0  0  0  0  0  0  0  0  0
   -0.7500   -1.2990    0.0000 C   0  0  0  0  0  0  0  0  0  0  0  0
   -4.3786   -5.1199    0.0000 C   0  0  0  0  0  0  0  0  0  0  0  0
   -5.4933   -4.1162    0.0000 O   0  0  0  0  0  0  0  0  0  0  0  0
   -4.6904   -6.5871    0.0000 N   0  0  0  0  0  0  0  0  0  0  0  0
   -5.9484   -7.4041    0.0000 C   0  0  0  0  0  0  0  0  0  0  0  0
   -5.1315   -8.6621    0.0000 C   0  0  0  0  0  0  0  0  0  0  0  0
   -5.4433  -10.1293    0.0000 O   0  0  0  0  0  0  0  0  0  0  0  0
   -3.8735   -7.8451    0.0000 C   0  0  0  0  0  0  0  0  0  0  0  0
  1  2  2  0
  2  3  1  0
  3  4  1  0
  4  5  1  0
  5  6  2  0
  6  7  1  0
  7  8  1  0
  8  9  2  0
  9 10  1  0
 10 11  1  0
 11 12  1  0
 12 13  1  0
 13 14  1  0
 14 15  1  0
 15 16  1  6
 16 17  2  0
 17 18  1  0
 18 19  1  0
 18 20  2  0
 20 21  1  0
 21 22  2  0
 22 23  1  0
 10 24  2  0
 24 25  1  0
  2 26  1  0
 26 27  2  0
 26 28  1  0
 28 29  1  0
 29 30  1  0
 30 31  1  0
 30 32  1  0
 25  4  2  0
 32 28  1  0
 25  7  1  0
 15 11  1  0
 22 16  1  0
M  END
>  <Compound_ID>  (362) 
CHEMBL4108904

>  <Molecule Name>  (362) 
nan

>  <Molecular Weight>  (362) 
442.43

>  <AlogP>  (362) 
1.49

>  <Smiles>  (362) 
O=C(Nc1cnn2ccc(N3CCC[C@@H]3c3cc(F)ccc3F)nc12)C(=O)N1CC(O)C1

>  <Standard Type>  (362) 
IC50

>  <Standard Relation>  (362) 
'='

>  <Standard Units>  (362) 
nM

>  <Standard Value>  (362) 
10.1

>  <Assay ChEMBL ID>  (362) 
CHEMBL3887076

>  <Assay Description>  (362) 
ELISA Assay: An enzyme-linked immunosorbant assay (ELISA) was used to assess TrkA kinase activity in the presence of inhibitors. Immulon 4HBX 384-well microtiter plates (Thermo part #8755) were coated with a 0.025 mg/mL solution of poly (Glu, Ala, Tyr; 6:3:1; Sigma P3899). Various concentrations of test compound, 2.5 nM TrkA (Invitrogen Corp., histidine-tagged recombinant human TrkA, cytoplasmic domain), and 500 uM ATP were incubated for 25 minutes at ambient temperature in the coated plates while shaking. The assay buffer consisted of 25 mM MOPS pH 7.5, 0.005% (v/v) Triton X-100 and 5 mM MgCl2. The reaction mixture was removed from the plate by washing with PBS containing 0.1% (v/v) Tween 20. The phosphorylated reaction product was detected using 0.2 ug/mL of a phosphotyrosine specific monoclonal antibody (clone PY20) conjugated to horseradish peroxidase in conjunction with the TMB Peroxidase Substrate System (KPL).

>  <BAO Format ID>  (362) 
BAO_0000357

>  <BAO Label>  (362) 
single protein format

>  <Assay Organism>  (362) 
None

>  <Target ChEMBL ID>  (362) 
CHEMBL2815

>  <Target Name>  (362) 
Nerve growth factor receptor Trk-A

>  <Target Organism>  (362) 
Homo sapiens

>  <Target Type>  (362) 
SINGLE PROTEIN

>  <Document ChEMBL ID>  (362) 
CHEMBL3886151

>  <Source Description>  (362) 
BindingDB Database

>  <Document Journal>  (362) 
nan

>  <Document Year>  (362) 
2014.0

>  <Active>  (362) 
1.0

>  <bits>  (362) 
<rdkit.DataStructs.cDataStructs.ExplicitBitVect object at 0x00000159F543ED50>

>  <Group>  (362) 
G2

$$$$

     RDKit          2D

 36 40  0  0  0  0  0  0  0  0999 V2000
   -6.9199   -4.5797    0.0000 O   0  0  0  0  0  0  0  0  0  0  0  0
   -7.2317   -6.0469    0.0000 C   0  0  0  0  0  0  0  0  0  0  0  0
   -8.6583   -6.5105    0.0000 C   0  0  0  0  0  0  0  0  0  0  0  0
   -9.7730   -5.5068    0.0000 C   0  0  0  0  0  0  0  0  0  0  0  0
   -9.4612   -4.0396    0.0000 C   0  0  0  0  0  0  0  0  0  0  0  0
  -10.5759   -3.0359    0.0000 C   0  0  0  0  0  0  0  0  0  0  0  0
  -12.0025   -3.4994    0.0000 C   0  0  0  0  0  0  0  0  0  0  0  0
  -13.1172   -2.4957    0.0000 C   0  0  0  0  0  0  0  0  0  0  0  0
  -14.2319   -1.4920    0.0000 F   0  0  0  0  0  0  0  0  0  0  0  0
  -12.1135   -1.3810    0.0000 F   0  0  0  0  0  0  0  0  0  0  0  0
  -14.1209   -3.6104    0.0000 F   0  0  0  0  0  0  0  0  0  0  0  0
  -12.3143   -4.9666    0.0000 C   0  0  0  0  0  0  0  0  0  0  0  0
  -11.1996   -5.9703    0.0000 C   0  0  0  0  0  0  0  0  0  0  0  0
   -6.1170   -7.0506    0.0000 N   0  0  0  0  0  0  0  0  0  0  0  0
   -4.6904   -6.5871    0.0000 C   0  0  0  0  0  0  0  0  0  0  0  0
   -3.5757   -7.5908    0.0000 C   0  0  0  0  0  0  0  0  0  0  0  0
   -2.1491   -7.1273    0.0000 N   0  0  0  0  0  0  0  0  0  0  0  0
   -1.8373   -5.6601    0.0000 C   0  0  0  0  0  0  0  0  0  0  0  0
   -2.9520   -4.6564    0.0000 C   0  0  0  0  0  0  0  0  0  0  0  0
   -2.6401   -3.1891    0.0000 C   0  0  0  0  0  0  0  0  0  0  0  0
   -3.7548   -2.1855    0.0000 O   0  0  0  0  0  0  0  0  0  0  0  0
   -1.2135   -2.7256    0.0000 C   0  0  0  0  0  0  0  0  0  0  0  0
   -0.0000   -3.6073    0.0000 C   0  0  0  0  0  0  0  0  0  0  0  0
    1.2135   -2.7256    0.0000 N   0  0  0  0  0  0  0  0  0  0  0  0
    2.6401   -3.1891    0.0000 C   0  0  0  0  0  0  0  0  0  0  0  0
    3.3443   -1.8647    0.0000 C   0  0  0  0  0  0  0  0  0  0  0  0
    4.8434   -1.8124    0.0000 O   0  0  0  0  0  0  0  0  0  0  0  0
    3.8221   -4.1126    0.0000 C   0  0  0  0  0  0  0  0  0  0  0  0
    2.4314   -4.6746    0.0000 C   0  0  0  0  0  0  0  0  0  0  0  0
    0.7500   -1.2990    0.0000 C   0  0  0  0  0  0  0  0  0  0  0  0
    1.5000    0.0000    0.0000 N   0  0  0  0  0  0  0  0  0  0  0  0
    0.7500    1.2990    0.0000 C   0  0  0  0  0  0  0  0  0  0  0  0
   -0.7500    1.2990    0.0000 N   0  0  0  0  0  0  0  0  0  0  0  0
   -1.5000    0.0000    0.0000 C   0  0  0  0  0  0  0  0  0  0  0  0
   -0.7500   -1.2990    0.0000 C   0  0  0  0  0  0  0  0  0  0  0  0
   -4.3786   -5.1199    0.0000 C   0  0  0  0  0  0  0  0  0  0  0  0
  1  2  2  0
  2  3  1  0
  3  4  1  0
  4  5  2  0
  5  6  1  0
  6  7  2  0
  7  8  1  0
  8  9  1  0
  8 10  1  0
  8 11  1  0
  7 12  1  0
 12 13  2  0
  2 14  1  0
 14 15  1  0
 15 16  2  0
 16 17  1  0
 17 18  2  0
 18 19  1  0
 19 20  1  0
 20 21  2  0
 20 22  1  0
 22 23  2  0
 23 24  1  0
 24 25  1  0
 25 26  1  0
 26 27  1  0
 25 28  1  0
 28 29  1  0
 24 30  1  0
 30 31  2  0
 31 32  1  0
 32 33  2  0
 33 34  1  0
 34 35  2  0
 19 36  2  0
 13  4  1  0
 36 15  1  0
 35 22  1  0
 29 25  1  0
 35 30  1  0
M  END
>  <Compound_ID>  (363) 
CHEMBL3671402

>  <Molecule Name>  (363) 
nan

>  <Molecular Weight>  (363) 
495.46

>  <AlogP>  (363) 
3.74

>  <Smiles>  (363) 
O=C(Cc1ccc(C(F)(F)F)cc1)Nc1cncc(C(=O)c2cn(C3(CO)CC3)c3ncncc23)c1

>  <Standard Type>  (363) 
IC50

>  <Standard Relation>  (363) 
'='

>  <Standard Units>  (363) 
nM

>  <Standard Value>  (363) 
4.53

>  <Assay ChEMBL ID>  (363) 
CHEMBL3887033

>  <Assay Description>  (363) 
Enzyme Assay: Isolated TRK Enzyme assays use the HTRF KinEASE-TK kit (Cisbio Cat# 62TK0PEJ) with recombinant His-tagged cytoplasmic domains of each TRK receptor sourced from Invitrogen (see table below). This activity-assay measures the phosphorylation of tyrosine residues within a substrate from the HTRF kit which has been validated by Cisbio for a variety of tyrosine kinases including the TRK receptors. Assay details: Target:TRKA; Invitrogen Cat# PV3144; Amino acids:aa 441-796; FAC enzyme:4nM; FAC ATP:40uM; Assay Reaction Time:35min.

>  <BAO Format ID>  (363) 
BAO_0000357

>  <BAO Label>  (363) 
single protein format

>  <Assay Organism>  (363) 
None

>  <Target ChEMBL ID>  (363) 
CHEMBL2815

>  <Target Name>  (363) 
Nerve growth factor receptor Trk-A

>  <Target Organism>  (363) 
Homo sapiens

>  <Target Type>  (363) 
SINGLE PROTEIN

>  <Document ChEMBL ID>  (363) 
CHEMBL3639348

>  <Source Description>  (363) 
BindingDB Database

>  <Document Journal>  (363) 
nan

>  <Document Year>  (363) 
2014.0

>  <Active>  (363) 
1.0

>  <bits>  (363) 
<rdkit.DataStructs.cDataStructs.ExplicitBitVect object at 0x00000159F543E650>

>  <Group>  (363) 
G2

$$$$

     RDKit          2D

 30 33  0  0  0  0  0  0  0  0999 V2000
   -4.6904   -6.5871    0.0000 C   0  0  0  0  0  0  0  0  0  0  0  0
   -4.3786   -5.1199    0.0000 C   0  0  0  0  0  0  0  0  0  0  0  0
   -2.9520   -4.6564    0.0000 N   0  0  0  0  0  0  0  0  0  0  0  0
   -2.6401   -3.1891    0.0000 C   0  0  0  0  0  0  0  0  0  0  0  0
   -3.7548   -2.1855    0.0000 O   0  0  0  0  0  0  0  0  0  0  0  0
   -1.2135   -2.7256    0.0000 C   0  0  0  0  0  0  0  0  0  0  0  0
   -0.0000   -3.6073    0.0000 C   0  0  0  0  0  0  0  0  0  0  0  0
    1.2135   -2.7256    0.0000 N   0  0  0  0  0  0  0  0  0  0  0  0
    0.7500   -1.2990    0.0000 N   0  0  0  0  0  0  0  0  0  0  0  0
    1.5000    0.0000    0.0000 C   0  0  0  0  0  0  0  0  0  0  0  0
    0.7500    1.2990    0.0000 C   0  0  0  0  0  0  0  0  0  0  0  0
   -0.7500    1.2990    0.0000 C   0  0  0  0  0  0  0  0  0  0  0  0
   -1.5000    2.5981    0.0000 N   0  0  0  0  0  0  0  0  0  0  0  0
   -2.9918    2.7549    0.0000 C   0  0  0  0  0  0  0  0  0  0  0  0
   -3.3037    4.2221    0.0000 C   0  0  0  0  0  0  0  0  0  0  0  0
   -2.0046    4.9721    0.0000 C   0  0  0  0  0  0  0  0  0  0  0  0
   -0.8899    3.9684    0.0000 C   0  0  0  0  0  0  0  0  0  0  0  0
    0.5773    4.2803    0.0000 C   0  0  0  0  0  0  0  0  0  0  0  0
    1.5810    3.1655    0.0000 C   0  0  0  0  0  0  0  0  0  0  0  0
    3.0482    3.4774    0.0000 N   0  0  0  0  0  0  0  0  0  0  0  0
    3.5118    4.9040    0.0000 C   0  0  0  0  0  0  0  0  0  0  0  0
    2.5081    6.0187    0.0000 C   0  0  0  0  0  0  0  0  0  0  0  0
    2.9716    7.4453    0.0000 F   0  0  0  0  0  0  0  0  0  0  0  0
    1.0409    5.7068    0.0000 C   0  0  0  0  0  0  0  0  0  0  0  0
   -1.5000    0.0000    0.0000 N   0  0  0  0  0  0  0  0  0  0  0  0
   -0.7500   -1.2990    0.0000 C   0  0  0  0  0  0  0  0  0  0  0  0
   -5.4933   -4.1162    0.0000 C   0  0  0  0  0  0  0  0  0  0  0  0
   -6.6080   -3.1125    0.0000 F   0  0  0  0  0  0  0  0  0  0  0  0
   -6.4970   -5.2309    0.0000 F   0  0  0  0  0  0  0  0  0  0  0  0
   -4.4896   -3.0015    0.0000 F   0  0  0  0  0  0  0  0  0  0  0  0
  2  1  1  6
  2  3  1  0
  3  4  1  0
  4  5  2  0
  4  6  1  0
  6  7  1  0
  7  8  2  0
  8  9  1  0
  9 10  1  0
 10 11  2  0
 11 12  1  0
 12 13  1  0
 13 14  1  0
 14 15  1  0
 15 16  1  0
 16 17  1  0
 17 18  1  0
 18 19  2  0
 19 20  1  0
 20 21  2  0
 21 22  1  0
 22 23  1  0
 22 24  2  0
 12 25  2  0
 25 26  1  0
  2 27  1  0
 27 28  1  0
 27 29  1  0
 27 30  1  0
 26  6  2  0
 26  9  1  0
 17 13  1  0
 24 18  1  0
M  END
>  <Compound_ID>  (364) 
CHEMBL3676003

>  <Molecule Name>  (364) 
nan

>  <Molecular Weight>  (364) 
422.39

>  <AlogP>  (364) 
3.29

>  <Smiles>  (364) 
C[C@@H](NC(=O)c1cnn2ccc(N3CCCC3c3cncc(F)c3)nc12)C(F)(F)F

>  <Standard Type>  (364) 
IC50

>  <Standard Relation>  (364) 
'='

>  <Standard Units>  (364) 
nM

>  <Standard Value>  (364) 
8.0

>  <Assay ChEMBL ID>  (364) 
CHEMBL3887070

>  <Assay Description>  (364) 
ELISA Assay: An enzyme-linked immunosorbant assay (ELISA) was used to assess TrkA kinase activity in the presence of inhibitors. Immulon 4HBX 384-well microtiter plates (Thermo part #8755) were coated with a 0.025 mg/mL solution of poly (Glu, Ala, Tyr; 6:3:1; Sigma P3899). Various concentrations of test compound, 2.5 nM TrkA (Invitrogen Corp., histidine-tagged recombinant human TrkA, cytoplasmic domain), and 500 uM ATP were incubated for 25 minutes at ambient temperature in the coated plates while shaking The assay buffer consisted of 25 mM MOPS pH 7.5, 0.005% (v/v) Triton X-100 and 5 mM MgCl2. The reaction mixture was removed from the plate by washing with PBS containing 0.1% (v/v) Tween 20. The phosphorylated reaction product was detected using 0.2 ug/mL of a phosphotyrosine specific monoclonal antibody (clone PY20) conjugated to horseradish peroxidase in conjunction with the TMB Peroxidase Substrate System (KPL).

>  <BAO Format ID>  (364) 
BAO_0000357

>  <BAO Label>  (364) 
single protein format

>  <Assay Organism>  (364) 
None

>  <Target ChEMBL ID>  (364) 
CHEMBL2815

>  <Target Name>  (364) 
Nerve growth factor receptor Trk-A

>  <Target Organism>  (364) 
Homo sapiens

>  <Target Type>  (364) 
SINGLE PROTEIN

>  <Document ChEMBL ID>  (364) 
CHEMBL3638907

>  <Source Description>  (364) 
BindingDB Database

>  <Document Journal>  (364) 
nan

>  <Document Year>  (364) 
2014.0

>  <Active>  (364) 
1.0

>  <bits>  (364) 
<rdkit.DataStructs.cDataStructs.ExplicitBitVect object at 0x00000159F543E5E0>

>  <Group>  (364) 
G2

$$$$

     RDKit          2D

 28 31  0  0  0  0  0  0  0  0999 V2000
   -3.7548   -2.1855    0.0000 O   0  0  0  0  0  0  0  0  0  0  0  0
   -2.6401   -3.1891    0.0000 C   0  0  0  0  0  0  0  0  0  0  0  0
   -2.9520   -4.6564    0.0000 N   0  0  0  0  0  0  0  0  0  0  0  0
   -4.3786   -5.1199    0.0000 C   0  0  0  0  0  0  0  0  0  0  0  0
   -4.6904   -6.5871    0.0000 C   0  0  0  0  0  0  0  0  0  0  0  0
   -6.1170   -7.0506    0.0000 F   0  0  0  0  0  0  0  0  0  0  0  0
   -3.5757   -7.5908    0.0000 F   0  0  0  0  0  0  0  0  0  0  0  0
   -1.2135   -2.7256    0.0000 C   0  0  0  0  0  0  0  0  0  0  0  0
   -0.0000   -3.6073    0.0000 C   0  0  0  0  0  0  0  0  0  0  0  0
    1.2135   -2.7256    0.0000 N   0  0  0  0  0  0  0  0  0  0  0  0
    0.7500   -1.2990    0.0000 N   0  0  0  0  0  0  0  0  0  0  0  0
    1.5000    0.0000    0.0000 C   0  0  0  0  0  0  0  0  0  0  0  0
    0.7500    1.2990    0.0000 C   0  0  0  0  0  0  0  0  0  0  0  0
   -0.7500    1.2990    0.0000 C   0  0  0  0  0  0  0  0  0  0  0  0
   -1.5000    2.5981    0.0000 N   0  0  0  0  0  0  0  0  0  0  0  0
   -2.9918    2.7549    0.0000 C   0  0  0  0  0  0  0  0  0  0  0  0
   -3.3037    4.2221    0.0000 C   0  0  0  0  0  0  0  0  0  0  0  0
   -2.0046    4.9721    0.0000 C   0  0  0  0  0  0  0  0  0  0  0  0
   -0.8899    3.9684    0.0000 C   0  0  0  0  0  0  0  0  0  0  0  0
    0.5773    4.2803    0.0000 C   0  0  0  0  0  0  0  0  0  0  0  0
    1.5810    3.1655    0.0000 C   0  0  0  0  0  0  0  0  0  0  0  0
    3.0482    3.4774    0.0000 N   0  0  0  0  0  0  0  0  0  0  0  0
    3.5118    4.9040    0.0000 C   0  0  0  0  0  0  0  0  0  0  0  0
    2.5081    6.0187    0.0000 C   0  0  0  0  0  0  0  0  0  0  0  0
    2.9716    7.4453    0.0000 F   0  0  0  0  0  0  0  0  0  0  0  0
    1.0409    5.7068    0.0000 C   0  0  0  0  0  0  0  0  0  0  0  0
   -1.5000    0.0000    0.0000 N   0  0  0  0  0  0  0  0  0  0  0  0
   -0.7500   -1.2990    0.0000 C   0  0  0  0  0  0  0  0  0  0  0  0
  1  2  2  0
  2  3  1  0
  3  4  1  0
  4  5  1  0
  5  6  1  0
  5  7  1  0
  2  8  1  0
  8  9  1  0
  9 10  2  0
 10 11  1  0
 11 12  1  0
 12 13  2  0
 13 14  1  0
 14 15  1  0
 15 16  1  0
 16 17  1  0
 17 18  1  0
 18 19  1  0
 19 20  1  6
 20 21  2  0
 21 22  1  0
 22 23  2  0
 23 24  1  0
 24 25  1  0
 24 26  2  0
 14 27  2  0
 27 28  1  0
 28  8  2  0
 28 11  1  0
 19 15  1  0
 26 20  1  0
M  END
>  <Compound_ID>  (365) 
CHEMBL3676008

>  <Molecule Name>  (365) 
nan

>  <Molecular Weight>  (365) 
390.37

>  <AlogP>  (365) 
2.6

>  <Smiles>  (365) 
O=C(NCC(F)F)c1cnn2ccc(N3CCC[C@@H]3c3cncc(F)c3)nc12

>  <Standard Type>  (365) 
IC50

>  <Standard Relation>  (365) 
'='

>  <Standard Units>  (365) 
nM

>  <Standard Value>  (365) 
7.4

>  <Assay ChEMBL ID>  (365) 
CHEMBL3887070

>  <Assay Description>  (365) 
ELISA Assay: An enzyme-linked immunosorbant assay (ELISA) was used to assess TrkA kinase activity in the presence of inhibitors. Immulon 4HBX 384-well microtiter plates (Thermo part #8755) were coated with a 0.025 mg/mL solution of poly (Glu, Ala, Tyr; 6:3:1; Sigma P3899). Various concentrations of test compound, 2.5 nM TrkA (Invitrogen Corp., histidine-tagged recombinant human TrkA, cytoplasmic domain), and 500 uM ATP were incubated for 25 minutes at ambient temperature in the coated plates while shaking The assay buffer consisted of 25 mM MOPS pH 7.5, 0.005% (v/v) Triton X-100 and 5 mM MgCl2. The reaction mixture was removed from the plate by washing with PBS containing 0.1% (v/v) Tween 20. The phosphorylated reaction product was detected using 0.2 ug/mL of a phosphotyrosine specific monoclonal antibody (clone PY20) conjugated to horseradish peroxidase in conjunction with the TMB Peroxidase Substrate System (KPL).

>  <BAO Format ID>  (365) 
BAO_0000357

>  <BAO Label>  (365) 
single protein format

>  <Assay Organism>  (365) 
None

>  <Target ChEMBL ID>  (365) 
CHEMBL2815

>  <Target Name>  (365) 
Nerve growth factor receptor Trk-A

>  <Target Organism>  (365) 
Homo sapiens

>  <Target Type>  (365) 
SINGLE PROTEIN

>  <Document ChEMBL ID>  (365) 
CHEMBL3638907

>  <Source Description>  (365) 
BindingDB Database

>  <Document Journal>  (365) 
nan

>  <Document Year>  (365) 
2014.0

>  <Active>  (365) 
1.0

>  <bits>  (365) 
<rdkit.DataStructs.cDataStructs.ExplicitBitVect object at 0x00000159F543F220>

>  <Group>  (365) 
G2

$$$$

     RDKit          2D

 30 34  0  0  0  0  0  0  0  0999 V2000
   -5.5921   -2.7382    0.0000 C   0  0  0  0  0  0  0  0  0  0  0  0
   -5.5921   -4.2382    0.0000 N   0  0  0  0  0  0  0  0  0  0  0  0
   -6.8056   -5.1199    0.0000 C   0  0  0  0  0  0  0  0  0  0  0  0
   -6.3421   -6.5465    0.0000 C   0  0  0  0  0  0  0  0  0  0  0  0
   -4.8421   -6.5465    0.0000 N   0  0  0  0  0  0  0  0  0  0  0  0
   -4.3786   -5.1199    0.0000 C   0  0  0  0  0  0  0  0  0  0  0  0
   -2.9520   -4.6564    0.0000 C   0  0  0  0  0  0  0  0  0  0  0  0
   -1.8373   -5.6601    0.0000 O   0  0  0  0  0  0  0  0  0  0  0  0
   -2.6401   -3.1891    0.0000 N   0  0  0  0  0  0  0  0  0  0  0  0
   -1.2135   -2.7256    0.0000 C   0  0  0  0  0  0  0  0  0  0  0  0
   -0.0000   -3.6073    0.0000 C   0  0  0  0  0  0  0  0  0  0  0  0
    1.2135   -2.7256    0.0000 N   0  0  0  0  0  0  0  0  0  0  0  0
    0.7500   -1.2990    0.0000 N   0  0  0  0  0  0  0  0  0  0  0  0
    1.5000    0.0000    0.0000 C   0  0  0  0  0  0  0  0  0  0  0  0
    0.7500    1.2990    0.0000 C   0  0  0  0  0  0  0  0  0  0  0  0
   -0.7500    1.2990    0.0000 C   0  0  0  0  0  0  0  0  0  0  0  0
   -1.5000    2.5981    0.0000 N   0  0  0  0  0  0  0  0  0  0  0  0
   -2.9918    2.7549    0.0000 C   0  0  0  0  0  0  0  0  0  0  0  0
   -3.3037    4.2221    0.0000 C   0  0  0  0  0  0  0  0  0  0  0  0
   -2.0046    4.9721    0.0000 C   0  0  0  0  0  0  0  0  0  0  0  0
   -0.8899    3.9684    0.0000 C   0  0  0  0  0  0  0  0  0  0  0  0
    0.5773    4.2803    0.0000 C   0  0  0  0  0  0  0  0  0  0  0  0
    1.5810    3.1655    0.0000 C   0  0  0  0  0  0  0  0  0  0  0  0
    3.0482    3.4774    0.0000 C   0  0  0  0  0  0  0  0  0  0  0  0
    3.5118    4.9040    0.0000 C   0  0  0  0  0  0  0  0  0  0  0  0
    2.5081    6.0187    0.0000 C   0  0  0  0  0  0  0  0  0  0  0  0
    2.9716    7.4453    0.0000 F   0  0  0  0  0  0  0  0  0  0  0  0
    1.0409    5.7068    0.0000 C   0  0  0  0  0  0  0  0  0  0  0  0
   -1.5000    0.0000    0.0000 N   0  0  0  0  0  0  0  0  0  0  0  0
   -0.7500   -1.2990    0.0000 C   0  0  0  0  0  0  0  0  0  0  0  0
  1  2  1  0
  2  3  1  0
  3  4  2  0
  4  5  1  0
  5  6  2  0
  6  7  1  0
  7  8  2  0
  7  9  1  0
  9 10  1  0
 10 11  1  0
 11 12  2  0
 12 13  1  0
 13 14  1  0
 14 15  2  0
 15 16  1  0
 16 17  1  0
 17 18  1  0
 18 19  1  0
 19 20  1  0
 20 21  1  0
 21 22  1  6
 22 23  2  0
 23 24  1  0
 24 25  2  0
 25 26  1  0
 26 27  1  0
 26 28  2  0
 16 29  2  0
 29 30  1  0
  6  2  1  0
 30 10  2  0
 30 13  1  0
 21 17  1  0
 28 22  1  0
M  END
>  <Compound_ID>  (366) 
CHEMBL4111761

>  <Molecule Name>  (366) 
nan

>  <Molecular Weight>  (366) 
405.44

>  <AlogP>  (366) 
3.2

>  <Smiles>  (366) 
Cn1ccnc1C(=O)Nc1cnn2ccc(N3CCC[C@@H]3c3cccc(F)c3)nc12

>  <Standard Type>  (366) 
IC50

>  <Standard Relation>  (366) 
'='

>  <Standard Units>  (366) 
nM

>  <Standard Value>  (366) 
35.4

>  <Assay ChEMBL ID>  (366) 
CHEMBL3887076

>  <Assay Description>  (366) 
ELISA Assay: An enzyme-linked immunosorbant assay (ELISA) was used to assess TrkA kinase activity in the presence of inhibitors. Immulon 4HBX 384-well microtiter plates (Thermo part #8755) were coated with a 0.025 mg/mL solution of poly (Glu, Ala, Tyr; 6:3:1; Sigma P3899). Various concentrations of test compound, 2.5 nM TrkA (Invitrogen Corp., histidine-tagged recombinant human TrkA, cytoplasmic domain), and 500 uM ATP were incubated for 25 minutes at ambient temperature in the coated plates while shaking. The assay buffer consisted of 25 mM MOPS pH 7.5, 0.005% (v/v) Triton X-100 and 5 mM MgCl2. The reaction mixture was removed from the plate by washing with PBS containing 0.1% (v/v) Tween 20. The phosphorylated reaction product was detected using 0.2 ug/mL of a phosphotyrosine specific monoclonal antibody (clone PY20) conjugated to horseradish peroxidase in conjunction with the TMB Peroxidase Substrate System (KPL).

>  <BAO Format ID>  (366) 
BAO_0000357

>  <BAO Label>  (366) 
single protein format

>  <Assay Organism>  (366) 
None

>  <Target ChEMBL ID>  (366) 
CHEMBL2815

>  <Target Name>  (366) 
Nerve growth factor receptor Trk-A

>  <Target Organism>  (366) 
Homo sapiens

>  <Target Type>  (366) 
SINGLE PROTEIN

>  <Document ChEMBL ID>  (366) 
CHEMBL3886151

>  <Source Description>  (366) 
BindingDB Database

>  <Document Journal>  (366) 
nan

>  <Document Year>  (366) 
2014.0

>  <Active>  (366) 
1.0

>  <bits>  (366) 
<rdkit.DataStructs.cDataStructs.ExplicitBitVect object at 0x00000159F543FED0>

>  <Group>  (366) 
G2

$$$$

     RDKit          2D

 33 37  0  0  0  0  0  0  0  0999 V2000
    7.3934   -3.6905    0.0000 C   0  0  0  0  0  0  0  0  0  0  0  0
    5.9262   -3.3786    0.0000 O   0  0  0  0  0  0  0  0  0  0  0  0
    5.4627   -1.9520    0.0000 C   0  0  0  0  0  0  0  0  0  0  0  0
    6.4664   -0.8373    0.0000 C   0  0  0  0  0  0  0  0  0  0  0  0
    6.0029    0.5893    0.0000 C   0  0  0  0  0  0  0  0  0  0  0  0
    4.5356    0.9012    0.0000 C   0  0  0  0  0  0  0  0  0  0  0  0
    4.0721    2.3277    0.0000 F   0  0  0  0  0  0  0  0  0  0  0  0
    3.5320   -0.2136    0.0000 C   0  0  0  0  0  0  0  0  0  0  0  0
    3.9955   -1.6402    0.0000 C   0  0  0  0  0  0  0  0  0  0  0  0
    2.9918   -2.7549    0.0000 C   0  0  0  0  0  0  0  0  0  0  0  0
    3.3037   -4.2221    0.0000 C   0  0  0  0  0  0  0  0  0  0  0  0
    2.0046   -4.9721    0.0000 C   0  0  0  0  0  0  0  0  0  0  0  0
    0.8899   -3.9684    0.0000 C   0  0  0  0  0  0  0  0  0  0  0  0
    1.5000   -2.5981    0.0000 N   0  0  0  0  0  0  0  0  0  0  0  0
    0.7500   -1.2990    0.0000 C   0  0  0  0  0  0  0  0  0  0  0  0
    1.5000    0.0000    0.0000 C   0  0  0  0  0  0  0  0  0  0  0  0
    0.7500    1.2990    0.0000 C   0  0  0  0  0  0  0  0  0  0  0  0
   -0.7500    1.2990    0.0000 N   0  0  0  0  0  0  0  0  0  0  0  0
   -1.7537    2.4138    0.0000 N   0  0  0  0  0  0  0  0  0  0  0  0
   -3.1240    1.8037    0.0000 C   0  0  0  0  0  0  0  0  0  0  0  0
   -2.9672    0.3119    0.0000 C   0  0  0  0  0  0  0  0  0  0  0  0
   -4.0819   -0.6918    0.0000 N   0  0  0  0  0  0  0  0  0  0  0  0
   -5.5085   -0.2283    0.0000 C   0  0  0  0  0  0  0  0  0  0  0  0
   -5.8204    1.2389    0.0000 O   0  0  0  0  0  0  0  0  0  0  0  0
   -6.6232   -1.2320    0.0000 N   0  0  0  0  0  0  0  0  0  0  0  0
   -8.0498   -0.7685    0.0000 C   0  0  0  0  0  0  0  0  0  0  0  0
   -9.1645   -1.7722    0.0000 C   0  0  0  0  0  0  0  0  0  0  0  0
   -8.8527   -3.2394    0.0000 C   0  0  0  0  0  0  0  0  0  0  0  0
   -7.4261   -3.7029    0.0000 C   0  0  0  0  0  0  0  0  0  0  0  0
   -7.1142   -5.1701    0.0000 O   0  0  0  0  0  0  0  0  0  0  0  0
   -6.3114   -2.6992    0.0000 C   0  0  0  0  0  0  0  0  0  0  0  0
   -1.5000    0.0000    0.0000 C   0  0  0  0  0  0  0  0  0  0  0  0
   -0.7500   -1.2990    0.0000 N   0  0  0  0  0  0  0  0  0  0  0  0
  1  2  1  0
  2  3  1  0
  3  4  2  0
  4  5  1  0
  5  6  2  0
  6  7  1  0
  6  8  1  0
  8  9  2  0
 10  9  1  1
 10 11  1  0
 11 12  1  0
 12 13  1  0
 13 14  1  0
 14 15  1  0
 15 16  1  0
 16 17  2  0
 17 18  1  0
 18 19  1  0
 19 20  2  0
 20 21  1  0
 21 22  1  0
 22 23  1  0
 23 24  2  0
 23 25  1  0
 25 26  1  0
 26 27  1  0
 27 28  1  0
 28 29  1  0
 29 30  1  1
 29 31  1  0
 21 32  2  0
 32 33  1  0
  9  3  1  0
 14 10  1  0
 33 15  2  0
 32 18  1  0
 31 25  1  0
M  END
>  <Compound_ID>  (367) 
CHEMBL3904781

>  <Molecule Name>  (367) 
nan

>  <Molecular Weight>  (367) 
454.51

>  <AlogP>  (367) 
3.21

>  <Smiles>  (367) 
COc1ccc(F)cc1[C@H]1CCCN1c1ccn2ncc(NC(=O)N3CCC[C@H](O)C3)c2n1

>  <Standard Type>  (367) 
IC50

>  <Standard Relation>  (367) 
'='

>  <Standard Units>  (367) 
nM

>  <Standard Value>  (367) 
10.2

>  <Assay ChEMBL ID>  (367) 
CHEMBL3887076

>  <Assay Description>  (367) 
ELISA Assay: An enzyme-linked immunosorbant assay (ELISA) was used to assess TrkA kinase activity in the presence of inhibitors. Immulon 4HBX 384-well microtiter plates (Thermo part #8755) were coated with a 0.025 mg/mL solution of poly (Glu, Ala, Tyr; 6:3:1; Sigma P3899). Various concentrations of test compound, 2.5 nM TrkA (Invitrogen Corp., histidine-tagged recombinant human TrkA, cytoplasmic domain), and 500 uM ATP were incubated for 25 minutes at ambient temperature in the coated plates while shaking. The assay buffer consisted of 25 mM MOPS pH 7.5, 0.005% (v/v) Triton X-100 and 5 mM MgCl2. The reaction mixture was removed from the plate by washing with PBS containing 0.1% (v/v) Tween 20. The phosphorylated reaction product was detected using 0.2 ug/mL of a phosphotyrosine specific monoclonal antibody (clone PY20) conjugated to horseradish peroxidase in conjunction with the TMB Peroxidase Substrate System (KPL).

>  <BAO Format ID>  (367) 
BAO_0000357

>  <BAO Label>  (367) 
single protein format

>  <Assay Organism>  (367) 
None

>  <Target ChEMBL ID>  (367) 
CHEMBL2815

>  <Target Name>  (367) 
Nerve growth factor receptor Trk-A

>  <Target Organism>  (367) 
Homo sapiens

>  <Target Type>  (367) 
SINGLE PROTEIN

>  <Document ChEMBL ID>  (367) 
CHEMBL3886151

>  <Source Description>  (367) 
BindingDB Database

>  <Document Journal>  (367) 
nan

>  <Document Year>  (367) 
2014.0

>  <Active>  (367) 
1.0

>  <bits>  (367) 
<rdkit.DataStructs.cDataStructs.ExplicitBitVect object at 0x00000159F543E8F0>

>  <Group>  (367) 
G2

$$$$

     RDKit          2D

 31 35  0  0  0  0  0  0  0  0999 V2000
    7.3934   -3.6905    0.0000 C   0  0  0  0  0  0  0  0  0  0  0  0
    5.9262   -3.3786    0.0000 O   0  0  0  0  0  0  0  0  0  0  0  0
    5.4627   -1.9520    0.0000 C   0  0  0  0  0  0  0  0  0  0  0  0
    6.4664   -0.8373    0.0000 N   0  0  0  0  0  0  0  0  0  0  0  0
    6.0029    0.5893    0.0000 C   0  0  0  0  0  0  0  0  0  0  0  0
    4.5356    0.9012    0.0000 C   0  0  0  0  0  0  0  0  0  0  0  0
    4.0721    2.3277    0.0000 F   0  0  0  0  0  0  0  0  0  0  0  0
    3.5320   -0.2136    0.0000 C   0  0  0  0  0  0  0  0  0  0  0  0
    3.9955   -1.6402    0.0000 C   0  0  0  0  0  0  0  0  0  0  0  0
    2.9918   -2.7549    0.0000 C   0  0  0  0  0  0  0  0  0  0  0  0
    3.3037   -4.2221    0.0000 C   0  0  0  0  0  0  0  0  0  0  0  0
    2.0046   -4.9721    0.0000 C   0  0  0  0  0  0  0  0  0  0  0  0
    0.8899   -3.9684    0.0000 C   0  0  0  0  0  0  0  0  0  0  0  0
    1.5000   -2.5981    0.0000 N   0  0  0  0  0  0  0  0  0  0  0  0
    0.7500   -1.2990    0.0000 C   0  0  0  0  0  0  0  0  0  0  0  0
    1.5000    0.0000    0.0000 C   0  0  0  0  0  0  0  0  0  0  0  0
    0.7500    1.2990    0.0000 C   0  0  0  0  0  0  0  0  0  0  0  0
   -0.7500    1.2990    0.0000 N   0  0  0  0  0  0  0  0  0  0  0  0
   -1.7537    2.4138    0.0000 N   0  0  0  0  0  0  0  0  0  0  0  0
   -3.1240    1.8037    0.0000 C   0  0  0  0  0  0  0  0  0  0  0  0
   -2.9672    0.3119    0.0000 C   0  0  0  0  0  0  0  0  0  0  0  0
   -4.0819   -0.6918    0.0000 C   0  0  0  0  0  0  0  0  0  0  0  0
   -3.7701   -2.1590    0.0000 O   0  0  0  0  0  0  0  0  0  0  0  0
   -5.5085   -0.2283    0.0000 N   0  0  0  0  0  0  0  0  0  0  0  0
   -6.1895    1.1082    0.0000 C   0  0  0  0  0  0  0  0  0  0  0  0
   -7.5260    0.4272    0.0000 C   0  0  0  0  0  0  0  0  0  0  0  0
   -8.8625   -0.2538    0.0000 C   0  0  0  0  0  0  0  0  0  0  0  0
   -8.2070    1.7637    0.0000 O   0  0  0  0  0  0  0  0  0  0  0  0
   -6.8450   -0.9093    0.0000 C   0  0  0  0  0  0  0  0  0  0  0  0
   -1.5000    0.0000    0.0000 C   0  0  0  0  0  0  0  0  0  0  0  0
   -0.7500   -1.2990    0.0000 N   0  0  0  0  0  0  0  0  0  0  0  0
  1  2  1  0
  2  3  1  0
  3  4  2  0
  4  5  1  0
  5  6  2  0
  6  7  1  0
  6  8  1  0
  8  9  2  0
 10  9  1  1
 10 11  1  0
 11 12  1  0
 12 13  1  0
 13 14  1  0
 14 15  1  0
 15 16  1  0
 16 17  2  0
 17 18  1  0
 18 19  1  0
 19 20  2  0
 20 21  1  0
 21 22  1  0
 22 23  2  0
 22 24  1  0
 24 25  1  0
 25 26  1  0
 26 27  1  0
 26 28  1  0
 26 29  1  0
 21 30  2  0
 30 31  1  0
  9  3  1  0
 14 10  1  0
 31 15  2  0
 30 18  1  0
 29 24  1  0
M  END
>  <Compound_ID>  (368) 
CHEMBL3676018

>  <Molecule Name>  (368) 
nan

>  <Molecular Weight>  (368) 
426.45

>  <AlogP>  (368) 
1.82

>  <Smiles>  (368) 
COc1ncc(F)cc1[C@H]1CCCN1c1ccn2ncc(C(=O)N3CC(C)(O)C3)c2n1

>  <Standard Type>  (368) 
IC50

>  <Standard Relation>  (368) 
'='

>  <Standard Units>  (368) 
nM

>  <Standard Value>  (368) 
30.8

>  <Assay ChEMBL ID>  (368) 
CHEMBL3887070

>  <Assay Description>  (368) 
ELISA Assay: An enzyme-linked immunosorbant assay (ELISA) was used to assess TrkA kinase activity in the presence of inhibitors. Immulon 4HBX 384-well microtiter plates (Thermo part #8755) were coated with a 0.025 mg/mL solution of poly (Glu, Ala, Tyr; 6:3:1; Sigma P3899). Various concentrations of test compound, 2.5 nM TrkA (Invitrogen Corp., histidine-tagged recombinant human TrkA, cytoplasmic domain), and 500 uM ATP were incubated for 25 minutes at ambient temperature in the coated plates while shaking The assay buffer consisted of 25 mM MOPS pH 7.5, 0.005% (v/v) Triton X-100 and 5 mM MgCl2. The reaction mixture was removed from the plate by washing with PBS containing 0.1% (v/v) Tween 20. The phosphorylated reaction product was detected using 0.2 ug/mL of a phosphotyrosine specific monoclonal antibody (clone PY20) conjugated to horseradish peroxidase in conjunction with the TMB Peroxidase Substrate System (KPL).

>  <BAO Format ID>  (368) 
BAO_0000357

>  <BAO Label>  (368) 
single protein format

>  <Assay Organism>  (368) 
None

>  <Target ChEMBL ID>  (368) 
CHEMBL2815

>  <Target Name>  (368) 
Nerve growth factor receptor Trk-A

>  <Target Organism>  (368) 
Homo sapiens

>  <Target Type>  (368) 
SINGLE PROTEIN

>  <Document ChEMBL ID>  (368) 
CHEMBL3638907

>  <Source Description>  (368) 
BindingDB Database

>  <Document Journal>  (368) 
nan

>  <Document Year>  (368) 
2014.0

>  <Active>  (368) 
1.0

>  <bits>  (368) 
<rdkit.DataStructs.cDataStructs.ExplicitBitVect object at 0x00000159F543CEB0>

>  <Group>  (368) 
G2

$$$$

     RDKit          2D

 30 33  0  0  0  0  0  0  0  0999 V2000
    0.7500   -9.0933    0.0000 F   0  0  0  0  0  0  0  0  0  0  0  0
    1.5000   -7.7942    0.0000 C   0  0  0  0  0  0  0  0  0  0  0  0
    0.7500   -6.4952    0.0000 C   0  0  0  0  0  0  0  0  0  0  0  0
    1.5000   -5.1962    0.0000 C   0  0  0  0  0  0  0  0  0  0  0  0
    0.7500   -3.8971    0.0000 C   0  0  0  0  0  0  0  0  0  0  0  0
    1.5000   -2.5981    0.0000 N   0  0  0  0  0  0  0  0  0  0  0  0
    0.7500   -1.2990    0.0000 C   0  0  0  0  0  0  0  0  0  0  0  0
    1.5000    0.0000    0.0000 C   0  0  0  0  0  0  0  0  0  0  0  0
    0.7500    1.2990    0.0000 C   0  0  0  0  0  0  0  0  0  0  0  0
   -0.7500    1.2990    0.0000 C   0  0  0  0  0  0  0  0  0  0  0  0
   -1.7537    2.4138    0.0000 N   0  0  0  0  0  0  0  0  0  0  0  0
   -3.1240    1.8037    0.0000 N   0  0  0  0  0  0  0  0  0  0  0  0
   -2.9672    0.3119    0.0000 C   0  0  0  0  0  0  0  0  0  0  0  0
   -4.0819   -0.6918    0.0000 C   0  0  0  0  0  0  0  0  0  0  0  0
   -5.5085   -0.2283    0.0000 C   0  0  0  0  0  0  0  0  0  0  0  0
   -6.6232   -1.2320    0.0000 C   0  0  0  0  0  0  0  0  0  0  0  0
   -8.0498   -0.7685    0.0000 C   0  0  0  0  0  0  0  0  0  0  0  0
   -9.1645   -1.7722    0.0000 C   0  0  0  0  0  0  0  0  0  0  0  0
   -8.8527   -3.2394    0.0000 C   0  0  0  0  0  0  0  0  0  0  0  0
   -7.4261   -3.7029    0.0000 C   0  0  0  0  0  0  0  0  0  0  0  0
   -6.3114   -2.6992    0.0000 N   0  0  0  0  0  0  0  0  0  0  0  0
   -1.5000    0.0000    0.0000 C   0  0  0  0  0  0  0  0  0  0  0  0
   -0.7500   -1.2990    0.0000 C   0  0  0  0  0  0  0  0  0  0  0  0
    3.0000   -5.1962    0.0000 C   0  0  0  0  0  0  0  0  0  0  0  0
    3.7500   -6.4952    0.0000 C   0  0  0  0  0  0  0  0  0  0  0  0
    5.2500   -6.4952    0.0000 C   0  0  0  0  0  0  0  0  0  0  0  0
    6.7500   -6.4952    0.0000 F   0  0  0  0  0  0  0  0  0  0  0  0
    5.2500   -7.9952    0.0000 F   0  0  0  0  0  0  0  0  0  0  0  0
    5.2500   -4.9952    0.0000 F   0  0  0  0  0  0  0  0  0  0  0  0
    3.0000   -7.7942    0.0000 C   0  0  0  0  0  0  0  0  0  0  0  0
  1  2  1  0
  2  3  2  0
  3  4  1  0
  4  5  1  0
  5  6  1  0
  6  7  1  0
  7  8  2  0
  8  9  1  0
  9 10  2  0
 10 11  1  0
 11 12  1  0
 12 13  2  0
 13 14  1  0
 14 15  2  0
 15 16  1  0
 16 17  2  0
 17 18  1  0
 18 19  2  0
 19 20  1  0
 20 21  2  0
 13 22  1  0
 22 23  2  0
  4 24  2  0
 24 25  1  0
 25 26  1  0
 26 27  1  0
 26 28  1  0
 26 29  1  0
 25 30  2  0
 30  2  1  0
 23  7  1  0
 22 10  1  0
 21 16  1  0
M  END
>  <Compound_ID>  (369) 
CHEMBL4794286

>  <Molecule Name>  (369) 
nan

>  <Molecular Weight>  (369) 
412.39

>  <AlogP>  (369) 
5.9

>  <Smiles>  (369) 
Fc1cc(CNc2ccc3[nH]nc(/C=C/c4ccccn4)c3c2)cc(C(F)(F)F)c1

>  <Standard Type>  (369) 
IC50

>  <Standard Relation>  (369) 
'='

>  <Standard Units>  (369) 
nM

>  <Standard Value>  (369) 
76.3

>  <Assay ChEMBL ID>  (369) 
CHEMBL4772612

>  <Assay Description>  (369) 
Inhibition of TrkA (unknown origin) using Tyr1 peptide as substrate in presence of ATP measured after 2 hrs by FRET-based Z-Lyte kinase assay

>  <BAO Format ID>  (369) 
BAO_0000357

>  <BAO Label>  (369) 
single protein format

>  <Assay Organism>  (369) 
Homo sapiens

>  <Target ChEMBL ID>  (369) 
CHEMBL2815

>  <Target Name>  (369) 
Nerve growth factor receptor Trk-A

>  <Target Organism>  (369) 
Homo sapiens

>  <Target Type>  (369) 
SINGLE PROTEIN

>  <Document ChEMBL ID>  (369) 
CHEMBL4765391

>  <Source Description>  (369) 
Scientific Literature

>  <Document Journal>  (369) 
Eur J Med Chem

>  <Document Year>  (369) 
2020.0

>  <Active>  (369) 
1.0

>  <bits>  (369) 
<rdkit.DataStructs.cDataStructs.ExplicitBitVect object at 0x00000159F543D930>

>  <Group>  (369) 
G2

$$$$

     RDKit          2D

 32 36  0  0  0  0  0  0  0  0999 V2000
    3.7500   -1.2990    0.0000 O   0  0  0  0  0  0  0  0  0  0  0  0
    3.0000   -2.5981    0.0000 C   0  0  0  0  0  0  0  0  0  0  0  0
    1.5000   -2.5981    0.0000 N   0  0  0  0  0  0  0  0  0  0  0  0
    0.7500   -1.2990    0.0000 C   0  0  0  0  0  0  0  0  0  0  0  0
    1.5000    0.0000    0.0000 C   0  0  0  0  0  0  0  0  0  0  0  0
    0.7500    1.2990    0.0000 C   0  0  0  0  0  0  0  0  0  0  0  0
   -0.7500    1.2990    0.0000 C   0  0  0  0  0  0  0  0  0  0  0  0
   -1.5000    2.5981    0.0000 N   0  0  0  0  0  0  0  0  0  0  0  0
   -0.7500    3.8971    0.0000 C   0  0  0  0  0  0  0  0  0  0  0  0
   -1.5000    5.1962    0.0000 C   0  0  0  0  0  0  0  0  0  0  0  0
   -3.0000    5.1962    0.0000 O   0  0  0  0  0  0  0  0  0  0  0  0
   -3.7500    3.8971    0.0000 C   0  0  0  0  0  0  0  0  0  0  0  0
   -3.0000    2.5981    0.0000 C   0  0  0  0  0  0  0  0  0  0  0  0
   -1.5000    0.0000    0.0000 C   0  0  0  0  0  0  0  0  0  0  0  0
   -0.7500   -1.2990    0.0000 C   0  0  0  0  0  0  0  0  0  0  0  0
   -1.5000   -2.5981    0.0000 N   0  0  0  0  0  0  0  0  0  0  0  0
   -3.0000   -2.5981    0.0000 C   0  0  0  0  0  0  0  0  0  0  0  0
   -3.7500   -3.8971    0.0000 C   0  0  0  0  0  0  0  0  0  0  0  0
   -3.0000   -5.1962    0.0000 O   0  0  0  0  0  0  0  0  0  0  0  0
   -1.5000   -5.1962    0.0000 C   0  0  0  0  0  0  0  0  0  0  0  0
   -0.7500   -3.8971    0.0000 C   0  0  0  0  0  0  0  0  0  0  0  0
    3.7500   -3.8971    0.0000 C   0  0  0  0  0  0  0  0  0  0  0  0
    3.1399   -5.2674    0.0000 C   0  0  0  0  0  0  0  0  0  0  0  0
    4.2546   -6.2711    0.0000 N   0  0  0  0  0  0  0  0  0  0  0  0
    5.5537   -5.5211    0.0000 N   0  0  0  0  0  0  0  0  0  0  0  0
    6.9240   -6.1312    0.0000 C   0  0  0  0  0  0  0  0  0  0  0  0
    8.1375   -5.2496    0.0000 C   0  0  0  0  0  0  0  0  0  0  0  0
    9.5078   -5.8597    0.0000 C   0  0  0  0  0  0  0  0  0  0  0  0
    9.6646   -7.3514    0.0000 C   0  0  0  0  0  0  0  0  0  0  0  0
    8.4511   -8.2331    0.0000 C   0  0  0  0  0  0  0  0  0  0  0  0
    7.0808   -7.6230    0.0000 C   0  0  0  0  0  0  0  0  0  0  0  0
    5.2418   -4.0539    0.0000 N   0  0  0  0  0  0  0  0  0  0  0  0
  1  2  2  0
  2  3  1  0
  3  4  1  0
  4  5  2  0
  5  6  1  0
  6  7  2  0
  7  8  1  0
  8  9  1  0
  9 10  1  0
 10 11  1  0
 11 12  1  0
 12 13  1  0
  7 14  1  0
 14 15  2  0
 15 16  1  0
 16 17  1  0
 17 18  1  0
 18 19  1  0
 19 20  1  0
 20 21  1  0
  2 22  1  0
 22 23  1  0
 23 24  2  0
 24 25  1  0
 25 26  1  0
 26 27  2  0
 27 28  1  0
 28 29  2  0
 29 30  1  0
 30 31  2  0
 25 32  1  0
 15  4  1  0
 21 16  1  0
 32 22  2  0
 13  8  1  0
 31 26  1  0
M  END
>  <Compound_ID>  (370) 
CHEMBL4740028

>  <Molecule Name>  (370) 
nan

>  <Molecular Weight>  (370) 
434.5

>  <AlogP>  (370) 
2.19

>  <Smiles>  (370) 
O=C(Nc1ccc(N2CCOCC2)cc1N1CCOCC1)c1cnn(-c2ccccc2)n1

>  <Standard Type>  (370) 
IC50

>  <Standard Relation>  (370) 
'='

>  <Standard Units>  (370) 
nM

>  <Standard Value>  (370) 
5.2

>  <Assay ChEMBL ID>  (370) 
CHEMBL4716027

>  <Assay Description>  (370) 
Inhibition of human TRKA kinase domain by HTRF KinEASE biochemical assay

>  <BAO Format ID>  (370) 
BAO_0000357

>  <BAO Label>  (370) 
single protein format

>  <Assay Organism>  (370) 
Homo sapiens

>  <Target ChEMBL ID>  (370) 
CHEMBL2815

>  <Target Name>  (370) 
Nerve growth factor receptor Trk-A

>  <Target Organism>  (370) 
Homo sapiens

>  <Target Type>  (370) 
SINGLE PROTEIN

>  <Document ChEMBL ID>  (370) 
CHEMBL4715685

>  <Source Description>  (370) 
Scientific Literature

>  <Document Journal>  (370) 
RSC Med Chem

>  <Document Year>  (370) 
2020.0

>  <Active>  (370) 
1.0

>  <bits>  (370) 
<rdkit.DataStructs.cDataStructs.ExplicitBitVect object at 0x00000159F543C820>

>  <Group>  (370) 
G2

$$$$

     RDKit          2D

 28 31  0  0  0  0  0  0  0  0999 V2000
   -0.7500   -3.8971    0.0000 C   0  0  0  0  0  0  0  0  0  0  0  0
    0.7500   -3.8971    0.0000 N   0  0  0  0  0  0  0  0  0  0  0  0
    1.5000   -2.5981    0.0000 C   0  0  0  0  0  0  0  0  0  0  0  0
    0.7500   -1.2990    0.0000 C   0  0  0  0  0  0  0  0  0  0  0  0
    1.5000    0.0000    0.0000 C   0  0  0  0  0  0  0  0  0  0  0  0
    0.7500    1.2990    0.0000 C   0  0  0  0  0  0  0  0  0  0  0  0
   -0.7500    1.2990    0.0000 C   0  0  0  0  0  0  0  0  0  0  0  0
   -1.7537    2.4138    0.0000 N   0  0  0  0  0  0  0  0  0  0  0  0
   -3.1240    1.8037    0.0000 N   0  0  0  0  0  0  0  0  0  0  0  0
   -2.9672    0.3119    0.0000 C   0  0  0  0  0  0  0  0  0  0  0  0
   -4.0819   -0.6918    0.0000 C   0  0  0  0  0  0  0  0  0  0  0  0
   -5.5085   -0.2283    0.0000 C   0  0  0  0  0  0  0  0  0  0  0  0
   -6.6232   -1.2320    0.0000 C   0  0  0  0  0  0  0  0  0  0  0  0
   -8.0498   -0.7685    0.0000 C   0  0  0  0  0  0  0  0  0  0  0  0
   -9.1645   -1.7722    0.0000 C   0  0  0  0  0  0  0  0  0  0  0  0
   -8.8527   -3.2394    0.0000 C   0  0  0  0  0  0  0  0  0  0  0  0
   -7.4261   -3.7029    0.0000 C   0  0  0  0  0  0  0  0  0  0  0  0
   -6.3114   -2.6992    0.0000 N   0  0  0  0  0  0  0  0  0  0  0  0
   -1.5000    0.0000    0.0000 C   0  0  0  0  0  0  0  0  0  0  0  0
   -0.7500   -1.2990    0.0000 C   0  0  0  0  0  0  0  0  0  0  0  0
    1.5000   -5.1962    0.0000 C   0  0  0  0  0  0  0  0  0  0  0  0
    0.7500   -6.4952    0.0000 C   0  0  0  0  0  0  0  0  0  0  0  0
    1.5000   -7.7942    0.0000 C   0  0  0  0  0  0  0  0  0  0  0  0
    0.7500   -9.0933    0.0000 F   0  0  0  0  0  0  0  0  0  0  0  0
    3.0000   -7.7942    0.0000 C   0  0  0  0  0  0  0  0  0  0  0  0
    3.7500   -6.4952    0.0000 C   0  0  0  0  0  0  0  0  0  0  0  0
    5.2500   -6.4952    0.0000 F   0  0  0  0  0  0  0  0  0  0  0  0
    3.0000   -5.1962    0.0000 C   0  0  0  0  0  0  0  0  0  0  0  0
  1  2  1  0
  2  3  1  0
  3  4  1  0
  4  5  2  0
  5  6  1  0
  6  7  2  0
  7  8  1  0
  8  9  1  0
  9 10  2  0
 10 11  1  0
 11 12  2  0
 12 13  1  0
 13 14  2  0
 14 15  1  0
 15 16  2  0
 16 17  1  0
 17 18  2  0
 10 19  1  0
 19 20  2  0
  2 21  1  0
 21 22  2  0
 22 23  1  0
 23 24  1  0
 23 25  2  0
 25 26  1  0
 26 27  1  0
 26 28  2  0
 20  4  1  0
 28 21  1  0
 19  7  1  0
 18 13  1  0
M  END
>  <Compound_ID>  (371) 
CHEMBL4777347

>  <Molecule Name>  (371) 
nan

>  <Molecular Weight>  (371) 
376.41

>  <AlogP>  (371) 
5.04

>  <Smiles>  (371) 
CN(Cc1ccc2[nH]nc(/C=C/c3ccccn3)c2c1)c1cc(F)cc(F)c1

>  <Standard Type>  (371) 
IC50

>  <Standard Relation>  (371) 
'='

>  <Standard Units>  (371) 
nM

>  <Standard Value>  (371) 
12.0

>  <Assay ChEMBL ID>  (371) 
CHEMBL4772612

>  <Assay Description>  (371) 
Inhibition of TrkA (unknown origin) using Tyr1 peptide as substrate in presence of ATP measured after 2 hrs by FRET-based Z-Lyte kinase assay

>  <BAO Format ID>  (371) 
BAO_0000357

>  <BAO Label>  (371) 
single protein format

>  <Assay Organism>  (371) 
Homo sapiens

>  <Target ChEMBL ID>  (371) 
CHEMBL2815

>  <Target Name>  (371) 
Nerve growth factor receptor Trk-A

>  <Target Organism>  (371) 
Homo sapiens

>  <Target Type>  (371) 
SINGLE PROTEIN

>  <Document ChEMBL ID>  (371) 
CHEMBL4765391

>  <Source Description>  (371) 
Scientific Literature

>  <Document Journal>  (371) 
Eur J Med Chem

>  <Document Year>  (371) 
2020.0

>  <Active>  (371) 
1.0

>  <bits>  (371) 
<rdkit.DataStructs.cDataStructs.ExplicitBitVect object at 0x00000159F543E030>

>  <Group>  (371) 
G2

$$$$

     RDKit          2D

 28 31  0  0  0  0  0  0  0  0999 V2000
    6.0000   -7.7942    0.0000 C   0  0  0  0  0  0  0  0  0  0  0  0
    5.2500   -6.4952    0.0000 O   0  0  0  0  0  0  0  0  0  0  0  0
    3.7500   -6.4952    0.0000 C   0  0  0  0  0  0  0  0  0  0  0  0
    3.0000   -7.7942    0.0000 C   0  0  0  0  0  0  0  0  0  0  0  0
    1.5000   -7.7942    0.0000 C   0  0  0  0  0  0  0  0  0  0  0  0
    0.7500   -9.0933    0.0000 F   0  0  0  0  0  0  0  0  0  0  0  0
    0.7500   -6.4952    0.0000 C   0  0  0  0  0  0  0  0  0  0  0  0
    1.5000   -5.1962    0.0000 C   0  0  0  0  0  0  0  0  0  0  0  0
    0.7500   -3.8971    0.0000 C   0  0  0  0  0  0  0  0  0  0  0  0
    1.5000   -2.5981    0.0000 N   0  0  0  0  0  0  0  0  0  0  0  0
    0.7500   -1.2990    0.0000 C   0  0  0  0  0  0  0  0  0  0  0  0
    1.5000    0.0000    0.0000 C   0  0  0  0  0  0  0  0  0  0  0  0
    0.7500    1.2990    0.0000 C   0  0  0  0  0  0  0  0  0  0  0  0
   -0.7500    1.2990    0.0000 C   0  0  0  0  0  0  0  0  0  0  0  0
   -1.7537    2.4138    0.0000 N   0  0  0  0  0  0  0  0  0  0  0  0
   -3.1240    1.8037    0.0000 N   0  0  0  0  0  0  0  0  0  0  0  0
   -2.9672    0.3119    0.0000 C   0  0  0  0  0  0  0  0  0  0  0  0
   -4.0819   -0.6918    0.0000 C   0  0  0  0  0  0  0  0  0  0  0  0
   -5.5085   -0.2283    0.0000 C   0  0  0  0  0  0  0  0  0  0  0  0
   -6.6232   -1.2320    0.0000 C   0  0  0  0  0  0  0  0  0  0  0  0
   -8.0498   -0.7685    0.0000 C   0  0  0  0  0  0  0  0  0  0  0  0
   -9.1645   -1.7722    0.0000 C   0  0  0  0  0  0  0  0  0  0  0  0
   -8.8527   -3.2394    0.0000 C   0  0  0  0  0  0  0  0  0  0  0  0
   -7.4261   -3.7029    0.0000 C   0  0  0  0  0  0  0  0  0  0  0  0
   -6.3114   -2.6992    0.0000 N   0  0  0  0  0  0  0  0  0  0  0  0
   -1.5000    0.0000    0.0000 C   0  0  0  0  0  0  0  0  0  0  0  0
   -0.7500   -1.2990    0.0000 C   0  0  0  0  0  0  0  0  0  0  0  0
    3.0000   -5.1962    0.0000 C   0  0  0  0  0  0  0  0  0  0  0  0
  1  2  1  0
  2  3  1  0
  3  4  2  0
  4  5  1  0
  5  6  1  0
  5  7  2  0
  7  8  1  0
  8  9  1  0
  9 10  1  0
 10 11  1  0
 11 12  2  0
 12 13  1  0
 13 14  2  0
 14 15  1  0
 15 16  1  0
 16 17  2  0
 17 18  1  0
 18 19  2  0
 19 20  1  0
 20 21  2  0
 21 22  1  0
 22 23  2  0
 23 24  1  0
 24 25  2  0
 17 26  1  0
 26 27  2  0
  8 28  2  0
 28  3  1  0
 27 11  1  0
 26 14  1  0
 25 20  1  0
M  END
>  <Compound_ID>  (372) 
CHEMBL4800232

>  <Molecule Name>  (372) 
nan

>  <Molecular Weight>  (372) 
374.42

>  <AlogP>  (372) 
4.89

>  <Smiles>  (372) 
COc1cc(F)cc(CNc2ccc3[nH]nc(/C=C/c4ccccn4)c3c2)c1

>  <Standard Type>  (372) 
IC50

>  <Standard Relation>  (372) 
'='

>  <Standard Units>  (372) 
nM

>  <Standard Value>  (372) 
3.1

>  <Assay ChEMBL ID>  (372) 
CHEMBL4772612

>  <Assay Description>  (372) 
Inhibition of TrkA (unknown origin) using Tyr1 peptide as substrate in presence of ATP measured after 2 hrs by FRET-based Z-Lyte kinase assay

>  <BAO Format ID>  (372) 
BAO_0000357

>  <BAO Label>  (372) 
single protein format

>  <Assay Organism>  (372) 
Homo sapiens

>  <Target ChEMBL ID>  (372) 
CHEMBL2815

>  <Target Name>  (372) 
Nerve growth factor receptor Trk-A

>  <Target Organism>  (372) 
Homo sapiens

>  <Target Type>  (372) 
SINGLE PROTEIN

>  <Document ChEMBL ID>  (372) 
CHEMBL4765391

>  <Source Description>  (372) 
Scientific Literature

>  <Document Journal>  (372) 
Eur J Med Chem

>  <Document Year>  (372) 
2020.0

>  <Active>  (372) 
1.0

>  <bits>  (372) 
<rdkit.DataStructs.cDataStructs.ExplicitBitVect object at 0x00000159F543C7B0>

>  <Group>  (372) 
G2

$$$$

     RDKit          2D

 36 41  0  0  0  0  0  0  0  0999 V2000
   -5.3605    2.7564    0.0000 C   0  0  0  0  0  0  0  0  0  0  0  0
   -4.2458    1.7527    0.0000 O   0  0  0  0  0  0  0  0  0  0  0  0
   -4.5577    0.2855    0.0000 C   0  0  0  0  0  0  0  0  0  0  0  0
   -3.4430   -0.7182    0.0000 C   0  0  0  0  0  0  0  0  0  0  0  0
   -3.7548   -2.1855    0.0000 C   0  0  0  0  0  0  0  0  0  0  0  0
   -2.6401   -3.1891    0.0000 C   0  0  0  0  0  0  0  0  0  0  0  0
   -1.2135   -2.7256    0.0000 N   0  0  0  0  0  0  0  0  0  0  0  0
   -0.0000   -3.6073    0.0000 C   0  0  0  0  0  0  0  0  0  0  0  0
    0.0000   -5.1073    0.0000 N   0  0  0  0  0  0  0  0  0  0  0  0
    1.2135   -2.7256    0.0000 N   0  0  0  0  0  0  0  0  0  0  0  0
    0.7500   -1.2990    0.0000 C   0  0  0  0  0  0  0  0  0  0  0  0
    1.5000    0.0000    0.0000 C   0  0  0  0  0  0  0  0  0  0  0  0
    0.7500    1.2990    0.0000 C   0  0  0  0  0  0  0  0  0  0  0  0
    1.5000    2.5981    0.0000 C   0  0  0  0  0  0  0  0  0  0  0  0
    0.8899    3.9684    0.0000 C   0  0  0  0  0  0  0  0  0  0  0  0
    2.0046    4.9721    0.0000 N   0  0  0  0  0  0  0  0  0  0  0  0
    3.3037    4.2221    0.0000 N   0  0  0  0  0  0  0  0  0  0  0  0
    4.6740    4.8322    0.0000 C   0  0  0  0  0  0  0  0  0  0  0  0
    2.9918    2.7549    0.0000 C   0  0  0  0  0  0  0  0  0  0  0  0
   -0.7500    1.2990    0.0000 C   0  0  0  0  0  0  0  0  0  0  0  0
   -1.5000    0.0000    0.0000 N   0  0  0  0  0  0  0  0  0  0  0  0
   -0.7500   -1.2990    0.0000 C   0  0  0  0  0  0  0  0  0  0  0  0
   -5.1814   -2.6490    0.0000 C   0  0  0  0  0  0  0  0  0  0  0  0
   -6.2961   -1.6453    0.0000 C   0  0  0  0  0  0  0  0  0  0  0  0
   -5.9843   -0.1781    0.0000 C   0  0  0  0  0  0  0  0  0  0  0  0
   -7.0990    0.8256    0.0000 O   0  0  0  0  0  0  0  0  0  0  0  0
   -8.5256    0.3621    0.0000 C   0  0  0  0  0  0  0  0  0  0  0  0
   -9.6403    1.3658    0.0000 C   0  0  0  0  0  0  0  0  0  0  0  0
   -9.3284    2.8330    0.0000 C   0  0  0  0  0  0  0  0  0  0  0  0
  -10.4431    3.8367    0.0000 C   0  0  0  0  0  0  0  0  0  0  0  0
  -11.8697    3.3732    0.0000 C   0  0  0  0  0  0  0  0  0  0  0  0
  -12.9844    4.3769    0.0000 C   0  0  0  0  0  0  0  0  0  0  0  0
  -14.4517    4.6888    0.0000 C   0  0  0  0  0  0  0  0  0  0  0  0
  -13.4480    5.8035    0.0000 C   0  0  0  0  0  0  0  0  0  0  0  0
  -12.1816    1.9060    0.0000 N   0  0  0  0  0  0  0  0  0  0  0  0
  -11.0669    0.9023    0.0000 C   0  0  0  0  0  0  0  0  0  0  0  0
  1  2  1  0
  2  3  1  0
  3  4  2  0
  4  5  1  0
  5  6  1  0
  6  7  1  0
  7  8  1  0
  8  9  1  0
  8 10  2  0
 10 11  1  0
 11 12  2  0
 12 13  1  0
 13 14  1  0
 14 15  1  0
 15 16  2  0
 16 17  1  0
 17 18  1  0
 17 19  1  0
 13 20  2  0
 20 21  1  0
 21 22  2  0
  5 23  2  0
 23 24  1  0
 24 25  2  0
 25 26  1  0
 26 27  1  0
 27 28  1  0
 28 29  2  0
 29 30  1  0
 30 31  2  0
 31 32  1  0
 32 33  1  0
 33 34  1  0
 31 35  1  0
 35 36  2  0
 25  3  1  0
 36 28  1  0
 22  7  1  0
 34 32  1  0
 22 11  1  0
 19 14  2  0
M  END
>  <Compound_ID>  (373) 
CHEMBL3673479

>  <Molecule Name>  (373) 
nan

>  <Molecular Weight>  (373) 
481.56

>  <AlogP>  (373) 
4.32

>  <Smiles>  (373) 
COc1cc(Cn2c(N)nc3cc(-c4cnn(C)c4)cnc32)ccc1OCc1ccc(C2CC2)nc1

>  <Standard Type>  (373) 
IC50

>  <Standard Relation>  (373) 
'='

>  <Standard Units>  (373) 
nM

>  <Standard Value>  (373) 
0.2

>  <Assay ChEMBL ID>  (373) 
CHEMBL3887112

>  <Assay Description>  (373) 
Inhibition Assay: Reagents and consumables were purchased from Sigma Aldrich, Carna Biosciences, or Caliper Life Sciences. All assay reaction conditions for IC50 determinations were within the linear range with respect to time and enzyme concentration. In a 384 well polypropylene plate, TrkA (0.4 nM, Carna 08-186) was pre-incubated in a 100 mM Hepes-NaOH pH 7.5 buffer containing 0.01% Triton X-100, 10 mM MgCl2, 0.1% BSA, 1 mM DTT, 10 uM sodium orthovanadate and 10 uM beta-glycerophosphate and compound with a concentration of 2.5% DMSO for 15 minutes at room temperature. The reaction was initiated with an equal volume of peptide substrate (Caliper Life Sciences catalog no. 760430) and ATP in the aforementioned buffer. The final concentrations in the reaction were 200 pM TrkA, 1.5 uM peptide substrate and 55 uM ATP (ATP Km). The reaction was incubated at room temperature for 180 minutes and terminated with a buffer containing excess EDTA (100 mM Hepes-NaOH pH 7.5, 0.02% Brij.

>  <BAO Format ID>  (373) 
BAO_0000357

>  <BAO Label>  (373) 
single protein format

>  <Assay Organism>  (373) 
None

>  <Target ChEMBL ID>  (373) 
CHEMBL2815

>  <Target Name>  (373) 
Nerve growth factor receptor Trk-A

>  <Target Organism>  (373) 
Homo sapiens

>  <Target Type>  (373) 
SINGLE PROTEIN

>  <Document ChEMBL ID>  (373) 
CHEMBL3638818

>  <Source Description>  (373) 
BindingDB Database

>  <Document Journal>  (373) 
nan

>  <Document Year>  (373) 
2015.0

>  <Active>  (373) 
1.0

>  <bits>  (373) 
<rdkit.DataStructs.cDataStructs.ExplicitBitVect object at 0x00000159F543F3E0>

>  <Group>  (373) 
G2

$$$$

     RDKit          2D

 27 30  0  0  0  0  0  0  0  0999 V2000
    0.7500   -3.8971    0.0000 C   0  0  0  0  0  0  0  0  0  0  0  0
    1.5000   -2.5981    0.0000 N   0  0  0  0  0  0  0  0  0  0  0  0
    3.0000   -2.5981    0.0000 C   0  0  0  0  0  0  0  0  0  0  0  0
    3.7500   -3.8971    0.0000 C   0  0  0  0  0  0  0  0  0  0  0  0
    5.2500   -3.8971    0.0000 C   0  0  0  0  0  0  0  0  0  0  0  0
    6.0000   -5.1962    0.0000 F   0  0  0  0  0  0  0  0  0  0  0  0
    6.0000   -2.5981    0.0000 C   0  0  0  0  0  0  0  0  0  0  0  0
    5.2500   -1.2990    0.0000 C   0  0  0  0  0  0  0  0  0  0  0  0
    6.0000   -0.0000    0.0000 F   0  0  0  0  0  0  0  0  0  0  0  0
    3.7500   -1.2990    0.0000 C   0  0  0  0  0  0  0  0  0  0  0  0
    0.7500   -1.2990    0.0000 C   0  0  0  0  0  0  0  0  0  0  0  0
    1.5000    0.0000    0.0000 C   0  0  0  0  0  0  0  0  0  0  0  0
    0.7500    1.2990    0.0000 C   0  0  0  0  0  0  0  0  0  0  0  0
   -0.7500    1.2990    0.0000 C   0  0  0  0  0  0  0  0  0  0  0  0
   -1.7537    2.4138    0.0000 N   0  0  0  0  0  0  0  0  0  0  0  0
   -3.1240    1.8037    0.0000 N   0  0  0  0  0  0  0  0  0  0  0  0
   -2.9672    0.3119    0.0000 C   0  0  0  0  0  0  0  0  0  0  0  0
   -4.0819   -0.6918    0.0000 C   0  0  0  0  0  0  0  0  0  0  0  0
   -5.5085   -0.2283    0.0000 C   0  0  0  0  0  0  0  0  0  0  0  0
   -6.6232   -1.2320    0.0000 C   0  0  0  0  0  0  0  0  0  0  0  0
   -8.0498   -0.7685    0.0000 C   0  0  0  0  0  0  0  0  0  0  0  0
   -9.1645   -1.7722    0.0000 C   0  0  0  0  0  0  0  0  0  0  0  0
   -8.8527   -3.2394    0.0000 C   0  0  0  0  0  0  0  0  0  0  0  0
   -7.4261   -3.7029    0.0000 C   0  0  0  0  0  0  0  0  0  0  0  0
   -6.3114   -2.6992    0.0000 N   0  0  0  0  0  0  0  0  0  0  0  0
   -1.5000    0.0000    0.0000 C   0  0  0  0  0  0  0  0  0  0  0  0
   -0.7500   -1.2990    0.0000 C   0  0  0  0  0  0  0  0  0  0  0  0
  1  2  1  0
  2  3  1  0
  3  4  2  0
  4  5  1  0
  5  6  1  0
  5  7  2  0
  7  8  1  0
  8  9  1  0
  8 10  2  0
  2 11  1  0
 11 12  2  0
 12 13  1  0
 13 14  2  0
 14 15  1  0
 15 16  1  0
 16 17  2  0
 17 18  1  0
 18 19  2  0
 19 20  1  0
 20 21  2  0
 21 22  1  0
 22 23  2  0
 23 24  1  0
 24 25  2  0
 17 26  1  0
 26 27  2  0
 10  3  1  0
 27 11  1  0
 26 14  1  0
 25 20  1  0
M  END
>  <Compound_ID>  (374) 
CHEMBL4776591

>  <Molecule Name>  (374) 
nan

>  <Molecular Weight>  (374) 
362.38

>  <AlogP>  (374) 
5.17

>  <Smiles>  (374) 
CN(c1cc(F)cc(F)c1)c1ccc2[nH]nc(/C=C/c3ccccn3)c2c1

>  <Standard Type>  (374) 
IC50

>  <Standard Relation>  (374) 
'='

>  <Standard Units>  (374) 
nM

>  <Standard Value>  (374) 
40.6

>  <Assay ChEMBL ID>  (374) 
CHEMBL4772612

>  <Assay Description>  (374) 
Inhibition of TrkA (unknown origin) using Tyr1 peptide as substrate in presence of ATP measured after 2 hrs by FRET-based Z-Lyte kinase assay

>  <BAO Format ID>  (374) 
BAO_0000357

>  <BAO Label>  (374) 
single protein format

>  <Assay Organism>  (374) 
Homo sapiens

>  <Target ChEMBL ID>  (374) 
CHEMBL2815

>  <Target Name>  (374) 
Nerve growth factor receptor Trk-A

>  <Target Organism>  (374) 
Homo sapiens

>  <Target Type>  (374) 
SINGLE PROTEIN

>  <Document ChEMBL ID>  (374) 
CHEMBL4765391

>  <Source Description>  (374) 
Scientific Literature

>  <Document Journal>  (374) 
Eur J Med Chem

>  <Document Year>  (374) 
2020.0

>  <Active>  (374) 
1.0

>  <bits>  (374) 
<rdkit.DataStructs.cDataStructs.ExplicitBitVect object at 0x00000159F543E880>

>  <Group>  (374) 
G2

$$$$

     RDKit          2D

 27 30  0  0  0  0  0  0  0  0999 V2000
    5.2500   -6.4952    0.0000 F   0  0  0  0  0  0  0  0  0  0  0  0
    3.7500   -6.4952    0.0000 C   0  0  0  0  0  0  0  0  0  0  0  0
    3.0000   -7.7942    0.0000 C   0  0  0  0  0  0  0  0  0  0  0  0
    1.5000   -7.7942    0.0000 C   0  0  0  0  0  0  0  0  0  0  0  0
    0.7500   -9.0933    0.0000 F   0  0  0  0  0  0  0  0  0  0  0  0
    0.7500   -6.4952    0.0000 C   0  0  0  0  0  0  0  0  0  0  0  0
    1.5000   -5.1962    0.0000 C   0  0  0  0  0  0  0  0  0  0  0  0
    0.7500   -3.8971    0.0000 O   0  0  0  0  0  0  0  0  0  0  0  0
    1.5000   -2.5981    0.0000 C   0  0  0  0  0  0  0  0  0  0  0  0
    0.7500   -1.2990    0.0000 C   0  0  0  0  0  0  0  0  0  0  0  0
    1.5000    0.0000    0.0000 C   0  0  0  0  0  0  0  0  0  0  0  0
    0.7500    1.2990    0.0000 C   0  0  0  0  0  0  0  0  0  0  0  0
   -0.7500    1.2990    0.0000 C   0  0  0  0  0  0  0  0  0  0  0  0
   -1.7537    2.4138    0.0000 N   0  0  0  0  0  0  0  0  0  0  0  0
   -3.1240    1.8037    0.0000 N   0  0  0  0  0  0  0  0  0  0  0  0
   -2.9672    0.3119    0.0000 C   0  0  0  0  0  0  0  0  0  0  0  0
   -4.0819   -0.6918    0.0000 C   0  0  0  0  0  0  0  0  0  0  0  0
   -5.5085   -0.2283    0.0000 C   0  0  0  0  0  0  0  0  0  0  0  0
   -6.6232   -1.2320    0.0000 C   0  0  0  0  0  0  0  0  0  0  0  0
   -8.0498   -0.7685    0.0000 C   0  0  0  0  0  0  0  0  0  0  0  0
   -9.1645   -1.7722    0.0000 C   0  0  0  0  0  0  0  0  0  0  0  0
   -8.8527   -3.2394    0.0000 C   0  0  0  0  0  0  0  0  0  0  0  0
   -7.4261   -3.7029    0.0000 C   0  0  0  0  0  0  0  0  0  0  0  0
   -6.3114   -2.6992    0.0000 N   0  0  0  0  0  0  0  0  0  0  0  0
   -1.5000    0.0000    0.0000 C   0  0  0  0  0  0  0  0  0  0  0  0
   -0.7500   -1.2990    0.0000 C   0  0  0  0  0  0  0  0  0  0  0  0
    3.0000   -5.1962    0.0000 C   0  0  0  0  0  0  0  0  0  0  0  0
  1  2  1  0
  2  3  2  0
  3  4  1  0
  4  5  1  0
  4  6  2  0
  6  7  1  0
  7  8  1  0
  8  9  1  0
  9 10  1  0
 10 11  2  0
 11 12  1  0
 12 13  2  0
 13 14  1  0
 14 15  1  0
 15 16  2  0
 16 17  1  0
 17 18  2  0
 18 19  1  0
 19 20  2  0
 20 21  1  0
 21 22  2  0
 22 23  1  0
 23 24  2  0
 16 25  1  0
 25 26  2  0
  7 27  2  0
 27  2  1  0
 26 10  1  0
 25 13  1  0
 24 19  1  0
M  END
>  <Compound_ID>  (375) 
CHEMBL4777099

>  <Molecule Name>  (375) 
nan

>  <Molecular Weight>  (375) 
363.37

>  <AlogP>  (375) 
4.99

>  <Smiles>  (375) 
Fc1cc(F)cc(OCc2ccc3[nH]nc(/C=C/c4ccccn4)c3c2)c1

>  <Standard Type>  (375) 
IC50

>  <Standard Relation>  (375) 
'='

>  <Standard Units>  (375) 
nM

>  <Standard Value>  (375) 
20.9

>  <Assay ChEMBL ID>  (375) 
CHEMBL4772612

>  <Assay Description>  (375) 
Inhibition of TrkA (unknown origin) using Tyr1 peptide as substrate in presence of ATP measured after 2 hrs by FRET-based Z-Lyte kinase assay

>  <BAO Format ID>  (375) 
BAO_0000357

>  <BAO Label>  (375) 
single protein format

>  <Assay Organism>  (375) 
Homo sapiens

>  <Target ChEMBL ID>  (375) 
CHEMBL2815

>  <Target Name>  (375) 
Nerve growth factor receptor Trk-A

>  <Target Organism>  (375) 
Homo sapiens

>  <Target Type>  (375) 
SINGLE PROTEIN

>  <Document ChEMBL ID>  (375) 
CHEMBL4765391

>  <Source Description>  (375) 
Scientific Literature

>  <Document Journal>  (375) 
Eur J Med Chem

>  <Document Year>  (375) 
2020.0

>  <Active>  (375) 
1.0

>  <bits>  (375) 
<rdkit.DataStructs.cDataStructs.ExplicitBitVect object at 0x00000159F543FAE0>

>  <Group>  (375) 
G2

$$$$

     RDKit          2D

 28 31  0  0  0  0  0  0  0  0999 V2000
    6.7500   -6.4952    0.0000 N   0  0  0  0  0  0  0  0  0  0  0  0
    5.2500   -6.4952    0.0000 C   0  0  0  0  0  0  0  0  0  0  0  0
    3.7500   -6.4952    0.0000 C   0  0  0  0  0  0  0  0  0  0  0  0
    3.0000   -7.7942    0.0000 C   0  0  0  0  0  0  0  0  0  0  0  0
    1.5000   -7.7942    0.0000 C   0  0  0  0  0  0  0  0  0  0  0  0
    0.7500   -9.0933    0.0000 F   0  0  0  0  0  0  0  0  0  0  0  0
    0.7500   -6.4952    0.0000 C   0  0  0  0  0  0  0  0  0  0  0  0
    1.5000   -5.1962    0.0000 C   0  0  0  0  0  0  0  0  0  0  0  0
    0.7500   -3.8971    0.0000 C   0  0  0  0  0  0  0  0  0  0  0  0
    1.5000   -2.5981    0.0000 N   0  0  0  0  0  0  0  0  0  0  0  0
    0.7500   -1.2990    0.0000 C   0  0  0  0  0  0  0  0  0  0  0  0
    1.5000    0.0000    0.0000 C   0  0  0  0  0  0  0  0  0  0  0  0
    0.7500    1.2990    0.0000 C   0  0  0  0  0  0  0  0  0  0  0  0
   -0.7500    1.2990    0.0000 C   0  0  0  0  0  0  0  0  0  0  0  0
   -1.7537    2.4138    0.0000 N   0  0  0  0  0  0  0  0  0  0  0  0
   -3.1240    1.8037    0.0000 N   0  0  0  0  0  0  0  0  0  0  0  0
   -2.9672    0.3119    0.0000 C   0  0  0  0  0  0  0  0  0  0  0  0
   -4.0819   -0.6918    0.0000 C   0  0  0  0  0  0  0  0  0  0  0  0
   -5.5085   -0.2283    0.0000 C   0  0  0  0  0  0  0  0  0  0  0  0
   -6.6232   -1.2320    0.0000 C   0  0  0  0  0  0  0  0  0  0  0  0
   -8.0498   -0.7685    0.0000 C   0  0  0  0  0  0  0  0  0  0  0  0
   -9.1645   -1.7722    0.0000 C   0  0  0  0  0  0  0  0  0  0  0  0
   -8.8527   -3.2394    0.0000 C   0  0  0  0  0  0  0  0  0  0  0  0
   -7.4261   -3.7029    0.0000 C   0  0  0  0  0  0  0  0  0  0  0  0
   -6.3114   -2.6992    0.0000 N   0  0  0  0  0  0  0  0  0  0  0  0
   -1.5000    0.0000    0.0000 C   0  0  0  0  0  0  0  0  0  0  0  0
   -0.7500   -1.2990    0.0000 C   0  0  0  0  0  0  0  0  0  0  0  0
    3.0000   -5.1962    0.0000 C   0  0  0  0  0  0  0  0  0  0  0  0
  1  2  3  0
  2  3  1  0
  3  4  2  0
  4  5  1  0
  5  6  1  0
  5  7  2  0
  7  8  1  0
  8  9  1  0
  9 10  1  0
 10 11  1  0
 11 12  2  0
 12 13  1  0
 13 14  2  0
 14 15  1  0
 15 16  1  0
 16 17  2  0
 17 18  1  0
 18 19  2  0
 19 20  1  0
 20 21  2  0
 21 22  1  0
 22 23  2  0
 23 24  1  0
 24 25  2  0
 17 26  1  0
 26 27  2  0
  8 28  2  0
 28  3  1  0
 27 11  1  0
 26 14  1  0
 25 20  1  0
M  END
>  <Compound_ID>  (376) 
CHEMBL4783132

>  <Molecule Name>  (376) 
nan

>  <Molecular Weight>  (376) 
369.4

>  <AlogP>  (376) 
4.75

>  <Smiles>  (376) 
N#Cc1cc(F)cc(CNc2ccc3[nH]nc(/C=C/c4ccccn4)c3c2)c1

>  <Standard Type>  (376) 
IC50

>  <Standard Relation>  (376) 
'='

>  <Standard Units>  (376) 
nM

>  <Standard Value>  (376) 
3.5

>  <Assay ChEMBL ID>  (376) 
CHEMBL4772612

>  <Assay Description>  (376) 
Inhibition of TrkA (unknown origin) using Tyr1 peptide as substrate in presence of ATP measured after 2 hrs by FRET-based Z-Lyte kinase assay

>  <BAO Format ID>  (376) 
BAO_0000357

>  <BAO Label>  (376) 
single protein format

>  <Assay Organism>  (376) 
Homo sapiens

>  <Target ChEMBL ID>  (376) 
CHEMBL2815

>  <Target Name>  (376) 
Nerve growth factor receptor Trk-A

>  <Target Organism>  (376) 
Homo sapiens

>  <Target Type>  (376) 
SINGLE PROTEIN

>  <Document ChEMBL ID>  (376) 
CHEMBL4765391

>  <Source Description>  (376) 
Scientific Literature

>  <Document Journal>  (376) 
Eur J Med Chem

>  <Document Year>  (376) 
2020.0

>  <Active>  (376) 
1.0

>  <bits>  (376) 
<rdkit.DataStructs.cDataStructs.ExplicitBitVect object at 0x00000159F543F300>

>  <Group>  (376) 
G2

$$$$

     RDKit          2D

 29 32  0  0  0  0  0  0  0  0999 V2000
    9.7877   -6.8555    0.0000 C   0  0  0  0  0  0  0  0  0  0  0  0
    9.3242   -5.4289    0.0000 O   0  0  0  0  0  0  0  0  0  0  0  0
    7.8570   -5.1171    0.0000 C   0  0  0  0  0  0  0  0  0  0  0  0
    7.3934   -3.6905    0.0000 C   0  0  0  0  0  0  0  0  0  0  0  0
    5.9262   -3.3786    0.0000 O   0  0  0  0  0  0  0  0  0  0  0  0
    5.4627   -1.9520    0.0000 C   0  0  0  0  0  0  0  0  0  0  0  0
    6.4664   -0.8373    0.0000 C   0  0  0  0  0  0  0  0  0  0  0  0
    6.0029    0.5893    0.0000 C   0  0  0  0  0  0  0  0  0  0  0  0
    4.5356    0.9012    0.0000 C   0  0  0  0  0  0  0  0  0  0  0  0
    4.0721    2.3277    0.0000 F   0  0  0  0  0  0  0  0  0  0  0  0
    3.5320   -0.2136    0.0000 C   0  0  0  0  0  0  0  0  0  0  0  0
    3.9955   -1.6402    0.0000 C   0  0  0  0  0  0  0  0  0  0  0  0
    2.9918   -2.7549    0.0000 C   0  0  0  0  0  0  0  0  0  0  0  0
    3.3037   -4.2221    0.0000 C   0  0  0  0  0  0  0  0  0  0  0  0
    2.0046   -4.9721    0.0000 C   0  0  0  0  0  0  0  0  0  0  0  0
    0.8899   -3.9684    0.0000 C   0  0  0  0  0  0  0  0  0  0  0  0
    1.5000   -2.5981    0.0000 N   0  0  0  0  0  0  0  0  0  0  0  0
    0.7500   -1.2990    0.0000 C   0  0  0  0  0  0  0  0  0  0  0  0
    1.5000    0.0000    0.0000 C   0  0  0  0  0  0  0  0  0  0  0  0
    0.7500    1.2990    0.0000 C   0  0  0  0  0  0  0  0  0  0  0  0
   -0.7500    1.2990    0.0000 N   0  0  0  0  0  0  0  0  0  0  0  0
   -1.7537    2.4138    0.0000 N   0  0  0  0  0  0  0  0  0  0  0  0
   -3.1240    1.8037    0.0000 C   0  0  0  0  0  0  0  0  0  0  0  0
   -2.9672    0.3119    0.0000 C   0  0  0  0  0  0  0  0  0  0  0  0
   -4.0819   -0.6918    0.0000 C   0  0  0  0  0  0  0  0  0  0  0  0
   -5.5085   -0.2283    0.0000 N   0  0  0  0  0  0  0  0  0  0  0  0
   -3.7701   -2.1590    0.0000 O   0  0  0  0  0  0  0  0  0  0  0  0
   -1.5000    0.0000    0.0000 C   0  0  0  0  0  0  0  0  0  0  0  0
   -0.7500   -1.2990    0.0000 N   0  0  0  0  0  0  0  0  0  0  0  0
  1  2  1  0
  2  3  1  0
  3  4  1  0
  4  5  1  0
  5  6  1  0
  6  7  2  0
  7  8  1  0
  8  9  2  0
  9 10  1  0
  9 11  1  0
 11 12  2  0
 13 12  1  1
 13 14  1  0
 14 15  1  0
 15 16  1  0
 16 17  1  0
 17 18  1  0
 18 19  1  0
 19 20  2  0
 20 21  1  0
 21 22  1  0
 22 23  2  0
 23 24  1  0
 24 25  1  0
 25 26  1  0
 25 27  2  0
 24 28  2  0
 28 29  1  0
 12  6  1  0
 17 13  1  0
 29 18  2  0
 28 21  1  0
M  END
>  <Compound_ID>  (377) 
CHEMBL3675964

>  <Molecule Name>  (377) 
nan

>  <Molecular Weight>  (377) 
399.43

>  <AlogP>  (377) 
2.33

>  <Smiles>  (377) 
COCCOc1ccc(F)cc1[C@H]1CCCN1c1ccn2ncc(C(N)=O)c2n1

>  <Standard Type>  (377) 
IC50

>  <Standard Relation>  (377) 
'='

>  <Standard Units>  (377) 
nM

>  <Standard Value>  (377) 
3.6

>  <Assay ChEMBL ID>  (377) 
CHEMBL3887070

>  <Assay Description>  (377) 
ELISA Assay: An enzyme-linked immunosorbant assay (ELISA) was used to assess TrkA kinase activity in the presence of inhibitors. Immulon 4HBX 384-well microtiter plates (Thermo part #8755) were coated with a 0.025 mg/mL solution of poly (Glu, Ala, Tyr; 6:3:1; Sigma P3899). Various concentrations of test compound, 2.5 nM TrkA (Invitrogen Corp., histidine-tagged recombinant human TrkA, cytoplasmic domain), and 500 uM ATP were incubated for 25 minutes at ambient temperature in the coated plates while shaking The assay buffer consisted of 25 mM MOPS pH 7.5, 0.005% (v/v) Triton X-100 and 5 mM MgCl2. The reaction mixture was removed from the plate by washing with PBS containing 0.1% (v/v) Tween 20. The phosphorylated reaction product was detected using 0.2 ug/mL of a phosphotyrosine specific monoclonal antibody (clone PY20) conjugated to horseradish peroxidase in conjunction with the TMB Peroxidase Substrate System (KPL).

>  <BAO Format ID>  (377) 
BAO_0000357

>  <BAO Label>  (377) 
single protein format

>  <Assay Organism>  (377) 
None

>  <Target ChEMBL ID>  (377) 
CHEMBL2815

>  <Target Name>  (377) 
Nerve growth factor receptor Trk-A

>  <Target Organism>  (377) 
Homo sapiens

>  <Target Type>  (377) 
SINGLE PROTEIN

>  <Document ChEMBL ID>  (377) 
CHEMBL3638907

>  <Source Description>  (377) 
BindingDB Database

>  <Document Journal>  (377) 
nan

>  <Document Year>  (377) 
2014.0

>  <Active>  (377) 
1.0

>  <bits>  (377) 
<rdkit.DataStructs.cDataStructs.ExplicitBitVect object at 0x00000159F543D540>

>  <Group>  (377) 
G2

$$$$

     RDKit          2D

 34 38  0  0  0  0  0  0  0  0999 V2000
   -1.8373   -5.6601    0.0000 O   0  0  0  0  0  0  0  0  0  0  0  0
   -2.9520   -4.6564    0.0000 C   0  0  0  0  0  0  0  0  0  0  0  0
   -2.6401   -3.1891    0.0000 N   0  0  0  0  0  0  0  0  0  0  0  0
   -1.2135   -2.7256    0.0000 C   0  0  0  0  0  0  0  0  0  0  0  0
   -0.0000   -3.6073    0.0000 C   0  0  0  0  0  0  0  0  0  0  0  0
    1.2135   -2.7256    0.0000 N   0  0  0  0  0  0  0  0  0  0  0  0
    0.7500   -1.2990    0.0000 N   0  0  0  0  0  0  0  0  0  0  0  0
    1.5000    0.0000    0.0000 C   0  0  0  0  0  0  0  0  0  0  0  0
    0.7500    1.2990    0.0000 C   0  0  0  0  0  0  0  0  0  0  0  0
   -0.7500    1.2990    0.0000 C   0  0  0  0  0  0  0  0  0  0  0  0
   -1.5000    2.5981    0.0000 N   0  0  0  0  0  0  0  0  0  0  0  0
   -2.9918    2.7549    0.0000 C   0  0  0  0  0  0  0  0  0  0  0  0
   -3.3037    4.2221    0.0000 C   0  0  0  0  0  0  0  0  0  0  0  0
   -2.0046    4.9721    0.0000 C   0  0  0  0  0  0  0  0  0  0  0  0
   -0.8899    3.9684    0.0000 C   0  0  0  0  0  0  0  0  0  0  0  0
    0.5773    4.2803    0.0000 C   0  0  0  0  0  0  0  0  0  0  0  0
    1.5810    3.1655    0.0000 C   0  0  0  0  0  0  0  0  0  0  0  0
    3.0482    3.4774    0.0000 C   0  0  0  0  0  0  0  0  0  0  0  0
    4.0519    2.3627    0.0000 F   0  0  0  0  0  0  0  0  0  0  0  0
    3.5118    4.9040    0.0000 C   0  0  0  0  0  0  0  0  0  0  0  0
    2.5081    6.0187    0.0000 C   0  0  0  0  0  0  0  0  0  0  0  0
    1.0409    5.7068    0.0000 C   0  0  0  0  0  0  0  0  0  0  0  0
    0.0372    6.8216    0.0000 C   0  0  0  0  0  0  0  0  0  0  0  0
    0.5007    8.2481    0.0000 F   0  0  0  0  0  0  0  0  0  0  0  0
   -1.4301    6.5097    0.0000 F   0  0  0  0  0  0  0  0  0  0  0  0
   -1.5000    0.0000    0.0000 N   0  0  0  0  0  0  0  0  0  0  0  0
   -0.7500   -1.2990    0.0000 C   0  0  0  0  0  0  0  0  0  0  0  0
   -4.3786   -5.1199    0.0000 N   0  0  0  0  0  0  0  0  0  0  0  0
   -5.4933   -4.1162    0.0000 C   0  0  0  0  0  0  0  0  0  0  0  0
   -6.9199   -4.5797    0.0000 C   0  0  0  0  0  0  0  0  0  0  0  0
   -7.2317   -6.0469    0.0000 C   0  0  0  0  0  0  0  0  0  0  0  0
   -6.1170   -7.0506    0.0000 C   0  0  0  0  0  0  0  0  0  0  0  0
   -6.4289   -8.5179    0.0000 O   0  0  0  0  0  0  0  0  0  0  0  0
   -4.6904   -6.5871    0.0000 C   0  0  0  0  0  0  0  0  0  0  0  0
  1  2  2  0
  2  3  1  0
  3  4  1  0
  4  5  1  0
  5  6  2  0
  6  7  1  0
  7  8  1  0
  8  9  2  0
  9 10  1  0
 10 11  1  0
 11 12  1  0
 12 13  1  0
 13 14  1  0
 14 15  1  0
 15 16  1  6
 16 17  2  0
 17 18  1  0
 18 19  1  0
 18 20  2  0
 20 21  1  0
 21 22  2  0
 22 23  1  0
 23 24  1  0
 23 25  1  0
 10 26  2  0
 26 27  1  0
  2 28  1  0
 28 29  1  0
 29 30  1  0
 30 31  1  0
 31 32  1  0
 32 33  1  6
 32 34  1  0
 27  4  2  0
 34 28  1  0
 27  7  1  0
 15 11  1  0
 22 16  1  0
M  END
>  <Compound_ID>  (378) 
CHEMBL4112405

>  <Molecule Name>  (378) 
nan

>  <Molecular Weight>  (378) 
474.49

>  <AlogP>  (378) 
4.14

>  <Smiles>  (378) 
O=C(Nc1cnn2ccc(N3CCC[C@@H]3c3cc(F)ccc3C(F)F)nc12)N1CCC[C@@H](O)C1

>  <Standard Type>  (378) 
IC50

>  <Standard Relation>  (378) 
'='

>  <Standard Units>  (378) 
nM

>  <Standard Value>  (378) 
25.7

>  <Assay ChEMBL ID>  (378) 
CHEMBL3887076

>  <Assay Description>  (378) 
ELISA Assay: An enzyme-linked immunosorbant assay (ELISA) was used to assess TrkA kinase activity in the presence of inhibitors. Immulon 4HBX 384-well microtiter plates (Thermo part #8755) were coated with a 0.025 mg/mL solution of poly (Glu, Ala, Tyr; 6:3:1; Sigma P3899). Various concentrations of test compound, 2.5 nM TrkA (Invitrogen Corp., histidine-tagged recombinant human TrkA, cytoplasmic domain), and 500 uM ATP were incubated for 25 minutes at ambient temperature in the coated plates while shaking. The assay buffer consisted of 25 mM MOPS pH 7.5, 0.005% (v/v) Triton X-100 and 5 mM MgCl2. The reaction mixture was removed from the plate by washing with PBS containing 0.1% (v/v) Tween 20. The phosphorylated reaction product was detected using 0.2 ug/mL of a phosphotyrosine specific monoclonal antibody (clone PY20) conjugated to horseradish peroxidase in conjunction with the TMB Peroxidase Substrate System (KPL).

>  <BAO Format ID>  (378) 
BAO_0000357

>  <BAO Label>  (378) 
single protein format

>  <Assay Organism>  (378) 
None

>  <Target ChEMBL ID>  (378) 
CHEMBL2815

>  <Target Name>  (378) 
Nerve growth factor receptor Trk-A

>  <Target Organism>  (378) 
Homo sapiens

>  <Target Type>  (378) 
SINGLE PROTEIN

>  <Document ChEMBL ID>  (378) 
CHEMBL3886151

>  <Source Description>  (378) 
BindingDB Database

>  <Document Journal>  (378) 
nan

>  <Document Year>  (378) 
2014.0

>  <Active>  (378) 
1.0

>  <bits>  (378) 
<rdkit.DataStructs.cDataStructs.ExplicitBitVect object at 0x00000159F543D8C0>

>  <Group>  (378) 
G2

$$$$

     RDKit          2D

 34 37  0  0  0  0  0  0  0  0999 V2000
   -2.9520   -4.6564    0.0000 C   0  0  0  0  0  0  0  0  0  0  0  0
   -2.6401   -3.1891    0.0000 C   0  0  0  0  0  0  0  0  0  0  0  0
   -3.7548   -2.1855    0.0000 C   0  0  0  0  0  0  0  0  0  0  0  0
   -1.2135   -2.7256    0.0000 N   0  0  0  0  0  0  0  0  0  0  0  0
   -0.0000   -3.6073    0.0000 C   0  0  0  0  0  0  0  0  0  0  0  0
    1.2135   -2.7256    0.0000 C   0  0  0  0  0  0  0  0  0  0  0  0
    2.6401   -3.1891    0.0000 C   0  0  0  0  0  0  0  0  0  0  0  0
    3.7548   -2.1855    0.0000 O   0  0  0  0  0  0  0  0  0  0  0  0
    2.9520   -4.6564    0.0000 C   0  0  0  0  0  0  0  0  0  0  0  0
    1.8373   -5.6601    0.0000 C   0  0  0  0  0  0  0  0  0  0  0  0
    2.1491   -7.1273    0.0000 C   0  0  0  0  0  0  0  0  0  0  0  0
    3.5757   -7.5908    0.0000 N   0  0  0  0  0  0  0  0  0  0  0  0
    4.6904   -6.5871    0.0000 C   0  0  0  0  0  0  0  0  0  0  0  0
    6.1170   -7.0506    0.0000 N   0  0  0  0  0  0  0  0  0  0  0  0
    6.4289   -8.5179    0.0000 C   0  0  0  0  0  0  0  0  0  0  0  0
    5.3142   -9.5216    0.0000 O   0  0  0  0  0  0  0  0  0  0  0  0
    7.8555   -8.9814    0.0000 C   0  0  0  0  0  0  0  0  0  0  0  0
    8.1673  -10.4486    0.0000 C   0  0  0  0  0  0  0  0  0  0  0  0
    9.5939  -10.9121    0.0000 C   0  0  0  0  0  0  0  0  0  0  0  0
   10.7086   -9.9084    0.0000 C   0  0  0  0  0  0  0  0  0  0  0  0
   10.3968   -8.4412    0.0000 C   0  0  0  0  0  0  0  0  0  0  0  0
   11.5115   -7.4375    0.0000 O   0  0  0  0  0  0  0  0  0  0  0  0
   12.9381   -7.9010    0.0000 C   0  0  0  0  0  0  0  0  0  0  0  0
   14.3647   -8.3646    0.0000 F   0  0  0  0  0  0  0  0  0  0  0  0
   13.4016   -6.4745    0.0000 F   0  0  0  0  0  0  0  0  0  0  0  0
   12.4745   -9.3276    0.0000 F   0  0  0  0  0  0  0  0  0  0  0  0
    8.9702   -7.9777    0.0000 C   0  0  0  0  0  0  0  0  0  0  0  0
    4.3786   -5.1199    0.0000 C   0  0  0  0  0  0  0  0  0  0  0  0
    0.7500   -1.2990    0.0000 C   0  0  0  0  0  0  0  0  0  0  0  0
    1.5000    0.0000    0.0000 C   0  0  0  0  0  0  0  0  0  0  0  0
    0.7500    1.2990    0.0000 N   0  0  0  0  0  0  0  0  0  0  0  0
   -0.7500    1.2990    0.0000 C   0  0  0  0  0  0  0  0  0  0  0  0
   -1.5000    0.0000    0.0000 C   0  0  0  0  0  0  0  0  0  0  0  0
   -0.7500   -1.2990    0.0000 C   0  0  0  0  0  0  0  0  0  0  0  0
  1  2  1  0
  2  3  1  0
  2  4  1  0
  4  5  1  0
  5  6  2  0
  6  7  1  0
  7  8  2  0
  7  9  1  0
  9 10  2  0
 10 11  1  0
 11 12  2  0
 12 13  1  0
 13 14  1  0
 14 15  1  0
 15 16  2  0
 15 17  1  0
 17 18  2  0
 18 19  1  0
 19 20  2  0
 20 21  1  0
 21 22  1  0
 22 23  1  0
 23 24  1  0
 23 25  1  0
 23 26  1  0
 21 27  2  0
 13 28  2  0
  6 29  1  0
 29 30  2  0
 30 31  1  0
 31 32  2  0
 32 33  1  0
 33 34  2  0
 34  4  1  0
 28  9  1  0
 34 29  1  0
 27 17  1  0
M  END
>  <Compound_ID>  (379) 
CHEMBL3923369

>  <Molecule Name>  (379) 
nan

>  <Molecular Weight>  (379) 
468.44

>  <AlogP>  (379) 
5.39

>  <Smiles>  (379) 
CC(C)n1cc(C(=O)c2ccnc(NC(=O)c3cccc(OC(F)(F)F)c3)c2)c2cnccc21

>  <Standard Type>  (379) 
IC50

>  <Standard Relation>  (379) 
'='

>  <Standard Units>  (379) 
nM

>  <Standard Value>  (379) 
3.85

>  <Assay ChEMBL ID>  (379) 
CHEMBL3887111

>  <Assay Description>  (379) 
HTRF Assay: Isolated TRK Enzyme assays use the HTRF KinEASE-TK kit (Cisbio Cat#62TK0PEJ) with recombinant His-tagged cytoplasmic domains of each TRK receptor sourced from Invitrogen (see table below). This activity-assay measures the phosphorylation of tyrosine residues within a substrate from the HTRF kit which has been validated by Cisbio for a variety of tyrosine kinases including the TRK receptors.Assay Details: Invitrogen Amino FAC FAC Assay ReactionTarget Cat# acids enzyme ATP TimeTRKA PV3144 aa 441-4 nM 40 uM 35 min (NTRK1) 796 TRKB PV3616 aa 526-1 nM 1.4 uM 40 min (NTRK2) 838 TRKC PV3617 aa 510- 10 nM 15 uM 30 min (NTRK3) 8250.5 mM stock solutions of test compounds are prepared and serially diluted in 100% DMSO. A standard curve using the compound of Example 135 disclosed in WO2005/116035 of 150 uM is also prepared on each test plate. High percentage effect (HPE) is defined by 150 uM.

>  <BAO Format ID>  (379) 
BAO_0000357

>  <BAO Label>  (379) 
single protein format

>  <Assay Organism>  (379) 
None

>  <Target ChEMBL ID>  (379) 
CHEMBL2815

>  <Target Name>  (379) 
Nerve growth factor receptor Trk-A

>  <Target Organism>  (379) 
Homo sapiens

>  <Target Type>  (379) 
SINGLE PROTEIN

>  <Document ChEMBL ID>  (379) 
CHEMBL3886170

>  <Source Description>  (379) 
BindingDB Database

>  <Document Journal>  (379) 
nan

>  <Document Year>  (379) 
2015.0

>  <Active>  (379) 
1.0

>  <bits>  (379) 
<rdkit.DataStructs.cDataStructs.ExplicitBitVect object at 0x00000159F543D310>

>  <Group>  (379) 
G2

$$$$

     RDKit          2D

 34 37  0  0  0  0  0  0  0  0999 V2000
  -10.9341    7.7749    0.0000 C   0  0  0  0  0  0  0  0  0  0  0  0
  -11.2460    6.3076    0.0000 O   0  0  0  0  0  0  0  0  0  0  0  0
  -10.1313    5.3039    0.0000 C   0  0  0  0  0  0  0  0  0  0  0  0
   -8.7047    5.7675    0.0000 C   0  0  0  0  0  0  0  0  0  0  0  0
   -7.5900    4.7638    0.0000 C   0  0  0  0  0  0  0  0  0  0  0  0
   -7.9018    3.2966    0.0000 C   0  0  0  0  0  0  0  0  0  0  0  0
   -6.7871    2.2929    0.0000 C   0  0  0  0  0  0  0  0  0  0  0  0
   -7.0990    0.8256    0.0000 O   0  0  0  0  0  0  0  0  0  0  0  0
   -5.9843   -0.1781    0.0000 C   0  0  0  0  0  0  0  0  0  0  0  0
   -6.2961   -1.6453    0.0000 C   0  0  0  0  0  0  0  0  0  0  0  0
   -5.1814   -2.6490    0.0000 C   0  0  0  0  0  0  0  0  0  0  0  0
   -3.7548   -2.1855    0.0000 C   0  0  0  0  0  0  0  0  0  0  0  0
   -2.6401   -3.1891    0.0000 C   0  0  0  0  0  0  0  0  0  0  0  0
   -1.2135   -2.7256    0.0000 N   0  0  0  0  0  0  0  0  0  0  0  0
   -0.0000   -3.6073    0.0000 C   0  0  0  0  0  0  0  0  0  0  0  0
    0.0000   -5.1073    0.0000 N   0  0  0  0  0  0  0  0  0  0  0  0
    1.2135   -2.7256    0.0000 N   0  0  0  0  0  0  0  0  0  0  0  0
    0.7500   -1.2990    0.0000 C   0  0  0  0  0  0  0  0  0  0  0  0
    1.5000    0.0000    0.0000 C   0  0  0  0  0  0  0  0  0  0  0  0
    0.7500    1.2990    0.0000 C   0  0  0  0  0  0  0  0  0  0  0  0
    1.5000    2.5981    0.0000 C   0  0  0  0  0  0  0  0  0  0  0  0
    2.2500    3.8971    0.0000 C   0  0  0  0  0  0  0  0  0  0  0  0
    3.0000    5.1962    0.0000 C   0  0  0  0  0  0  0  0  0  0  0  0
    4.5000    5.1962    0.0000 C   0  0  0  0  0  0  0  0  0  0  0  0
    5.2500    6.4952    0.0000 O   0  0  0  0  0  0  0  0  0  0  0  0
   -0.7500    1.2990    0.0000 C   0  0  0  0  0  0  0  0  0  0  0  0
   -1.5000    0.0000    0.0000 N   0  0  0  0  0  0  0  0  0  0  0  0
   -0.7500   -1.2990    0.0000 C   0  0  0  0  0  0  0  0  0  0  0  0
   -3.4430   -0.7182    0.0000 C   0  0  0  0  0  0  0  0  0  0  0  0
   -4.5577    0.2855    0.0000 C   0  0  0  0  0  0  0  0  0  0  0  0
   -4.2458    1.7527    0.0000 O   0  0  0  0  0  0  0  0  0  0  0  0
   -5.3605    2.7564    0.0000 C   0  0  0  0  0  0  0  0  0  0  0  0
   -9.3284    2.8330    0.0000 C   0  0  0  0  0  0  0  0  0  0  0  0
  -10.4431    3.8367    0.0000 N   0  0  0  0  0  0  0  0  0  0  0  0
  1  2  1  0
  2  3  1  0
  3  4  2  0
  4  5  1  0
  5  6  2  0
  6  7  1  0
  7  8  1  0
  8  9  1  0
  9 10  2  0
 10 11  1  0
 11 12  2  0
 12 13  1  0
 13 14  1  0
 14 15  1  0
 15 16  1  0
 15 17  2  0
 17 18  1  0
 18 19  2  0
 19 20  1  0
 20 21  1  0
 21 22  3  0
 22 23  1  0
 23 24  1  0
 24 25  1  0
 20 26  2  0
 26 27  1  0
 27 28  2  0
 12 29  1  0
 29 30  2  0
 30 31  1  0
 31 32  1  0
  6 33  1  0
 33 34  2  0
 34  3  1  0
 30  9  1  0
 28 14  1  0
 28 18  1  0
M  END
>  <Compound_ID>  (380) 
CHEMBL3678289

>  <Molecule Name>  (380) 
nan

>  <Molecular Weight>  (380) 
459.51

>  <AlogP>  (380) 
2.79

>  <Smiles>  (380) 
COc1ccc(COc2ccc(Cn3c(N)nc4cc(C#CCCO)cnc43)cc2OC)cn1

>  <Standard Type>  (380) 
IC50

>  <Standard Relation>  (380) 
'='

>  <Standard Units>  (380) 
nM

>  <Standard Value>  (380) 
7.0

>  <Assay ChEMBL ID>  (380) 
CHEMBL3887112

>  <Assay Description>  (380) 
Inhibition Assay: Reagents and consumables were purchased from Sigma Aldrich, Carna Biosciences, or Caliper Life Sciences. All assay reaction conditions for IC50 determinations were within the linear range with respect to time and enzyme concentration. In a 384 well polypropylene plate, TrkA (0.4 nM, Carna 08-186) was pre-incubated in a 100 mM Hepes-NaOH pH 7.5 buffer containing 0.01% Triton X-100, 10 mM MgCl2, 0.1% BSA, 1 mM DTT, 10 uM sodium orthovanadate and 10 uM beta-glycerophosphate and compound with a concentration of 2.5% DMSO for 15 minutes at room temperature. The reaction was initiated with an equal volume of peptide substrate (Caliper Life Sciences catalog no. 760430) and ATP in the aforementioned buffer. The final concentrations in the reaction were 200 pM TrkA, 1.5 uM peptide substrate and 55 uM ATP (ATP Km). The reaction was incubated at room temperature for 180 minutes and terminated with a buffer containing excess EDTA (100 mM Hepes-NaOH pH 7.5, 0.02% Brij.

>  <BAO Format ID>  (380) 
BAO_0000357

>  <BAO Label>  (380) 
single protein format

>  <Assay Organism>  (380) 
None

>  <Target ChEMBL ID>  (380) 
CHEMBL2815

>  <Target Name>  (380) 
Nerve growth factor receptor Trk-A

>  <Target Organism>  (380) 
Homo sapiens

>  <Target Type>  (380) 
SINGLE PROTEIN

>  <Document ChEMBL ID>  (380) 
CHEMBL3638818

>  <Source Description>  (380) 
BindingDB Database

>  <Document Journal>  (380) 
nan

>  <Document Year>  (380) 
2015.0

>  <Active>  (380) 
1.0

>  <bits>  (380) 
<rdkit.DataStructs.cDataStructs.ExplicitBitVect object at 0x00000159F543EF80>

>  <Group>  (380) 
G2

$$$$

     RDKit          2D

 39 43  0  0  0  0  0  0  0  0999 V2000
    5.7997    1.0344    0.0000 C   0  0  0  0  0  0  0  0  0  0  0  0
    4.7960    2.1491    0.0000 C   0  0  0  0  0  0  0  0  0  0  0  0
    5.2595    3.5757    0.0000 C   0  0  0  0  0  0  0  0  0  0  0  0
    6.7267    3.8876    0.0000 C   0  0  0  0  0  0  0  0  0  0  0  0
    7.7304    2.7729    0.0000 C   0  0  0  0  0  0  0  0  0  0  0  0
    7.2669    1.3463    0.0000 F   0  0  0  0  0  0  0  0  0  0  0  0
    9.1976    3.0847    0.0000 C   0  0  0  0  0  0  0  0  0  0  0  0
   10.2013    1.9700    0.0000 F   0  0  0  0  0  0  0  0  0  0  0  0
    9.6612    4.5113    0.0000 C   0  0  0  0  0  0  0  0  0  0  0  0
    8.6575    5.6260    0.0000 C   0  0  0  0  0  0  0  0  0  0  0  0
    9.1210    7.0526    0.0000 F   0  0  0  0  0  0  0  0  0  0  0  0
    7.1902    5.3142    0.0000 C   0  0  0  0  0  0  0  0  0  0  0  0
    6.1865    6.4289    0.0000 F   0  0  0  0  0  0  0  0  0  0  0  0
    3.3287    1.8373    0.0000 N   0  0  0  0  0  0  0  0  0  0  0  0
    2.3250    2.9520    0.0000 C   0  0  0  0  0  0  0  0  0  0  0  0
    2.7886    4.3786    0.0000 C   0  0  0  0  0  0  0  0  0  0  0  0
    1.7849    5.4933    0.0000 C   0  0  0  0  0  0  0  0  0  0  0  0
    0.3177    5.1814    0.0000 N   0  0  0  0  0  0  0  0  0  0  0  0
   -0.1459    3.7548    0.0000 C   0  0  0  0  0  0  0  0  0  0  0  0
   -1.6131    3.4430    0.0000 O   0  0  0  0  0  0  0  0  0  0  0  0
    0.8578    2.6401    0.0000 C   0  0  0  0  0  0  0  0  0  0  0  0
    0.3943    1.2135    0.0000 C   0  0  0  0  0  0  0  0  0  0  0  0
    1.2760    0.0000    0.0000 N   0  0  0  0  0  0  0  0  0  0  0  0
    0.3943   -1.2135    0.0000 C   0  0  0  0  0  0  0  0  0  0  0  0
    0.7062   -2.6807    0.0000 C   0  0  0  0  0  0  0  0  0  0  0  0
   -0.4086   -3.6844    0.0000 C   0  0  0  0  0  0  0  0  0  0  0  0
   -1.8351   -3.2209    0.0000 C   0  0  0  0  0  0  0  0  0  0  0  0
   -2.1470   -1.7537    0.0000 C   0  0  0  0  0  0  0  0  0  0  0  0
   -1.0323   -0.7500    0.0000 C   0  0  0  0  0  0  0  0  0  0  0  0
   -1.0323    0.7500    0.0000 N   0  0  0  0  0  0  0  0  0  0  0  0
   -2.7168   -4.4344    0.0000 C   0  0  0  0  0  0  0  0  0  0  0  0
   -1.8351   -5.6480    0.0000 N   0  0  0  0  0  0  0  0  0  0  0  0
   -2.2987   -7.0746    0.0000 C   0  0  0  0  0  0  0  0  0  0  0  0
   -3.7659   -7.3864    0.0000 C   0  0  0  0  0  0  0  0  0  0  0  0
   -4.2294   -8.8130    0.0000 N   0  0  0  0  0  0  0  0  0  0  0  0
   -5.6966   -9.1249    0.0000 C   0  0  0  0  0  0  0  0  0  0  0  0
   -3.2257   -9.9277    0.0000 C   0  0  0  0  0  0  0  0  0  0  0  0
   -0.4086   -5.1844    0.0000 C   0  0  0  0  0  0  0  0  0  0  0  0
    0.8050   -6.0661    0.0000 O   0  0  0  0  0  0  0  0  0  0  0  0
  2  1  1  6
  2  3  1  0
  3  4  1  0
  4  5  2  0
  5  6  1  0
  5  7  1  0
  7  8  1  0
  7  9  2  0
  9 10  1  0
 10 11  1  0
 10 12  2  0
 12 13  1  0
  2 14  1  0
 14 15  1  0
 15 16  1  0
 16 17  2  0
 17 18  1  0
 18 19  1  0
 19 20  2  0
 19 21  1  0
 21 22  1  0
 22 23  2  0
 23 24  1  0
 24 25  2  0
 25 26  1  0
 26 27  2  0
 27 28  1  0
 28 29  2  0
 29 30  1  0
 27 31  1  0
 31 32  1  0
 32 33  1  0
 33 34  1  0
 34 35  1  0
 35 36  1  0
 35 37  1  0
 32 38  1  0
 38 39  2  0
 12  4  1  0
 21 15  2  0
 30 22  1  0
 29 24  1  0
 38 26  1  0
M  END
>  <Compound_ID>  (381) 
CHEMBL3671311

>  <Molecule Name>  (381) 
nan

>  <Molecular Weight>  (381) 
542.54

>  <AlogP>  (381) 
4.04

>  <Smiles>  (381) 
C[C@@H](Cc1c(F)c(F)cc(F)c1F)Nc1cc[nH]c(=O)c1-c1nc2cc3c(cc2[nH]1)CN(CCN(C)C)C3=O

>  <Standard Type>  (381) 
IC50

>  <Standard Relation>  (381) 
'='

>  <Standard Units>  (381) 
nM

>  <Standard Value>  (381) 
1.141

>  <Assay ChEMBL ID>  (381) 
CHEMBL3887072

>  <Assay Description>  (381) 
In Vitro Kinase Activity Assay: Compounds to be tested were dissolved in 100% DMSO in a range of concentrations from 10-8 to 10-3 M including negative control (DMSO), then diluted with Kinase Buffer (50 mM HEPES, pH 7.5, 1 mM EGTA, 10 mM MgCl2, 0.01% Tween-20, and 2 mM DTT, added fresh) to 4x the final concentration. The final curve included 11 concentrations (10-11 to 10-5 M) plus negative control DMSO tested in triplicate.Kinase and ATP concentrations necessary for optimal activity were determined in separate experiments. (Table 2). Briefly, increasing concentrations of kinase were incubated in a fixed concentration of ATP (200 uM) in Kinase Buffer to determine maximal activity at various time points (30-120 min). The concentration of kinase that resulted in maximal activity with the shortest incubation time was then incubated in Kinase Buffer with increasing concentrations of ATP.

>  <BAO Format ID>  (381) 
BAO_0000357

>  <BAO Label>  (381) 
single protein format

>  <Assay Organism>  (381) 
None

>  <Target ChEMBL ID>  (381) 
CHEMBL2815

>  <Target Name>  (381) 
Nerve growth factor receptor Trk-A

>  <Target Organism>  (381) 
Homo sapiens

>  <Target Type>  (381) 
SINGLE PROTEIN

>  <Document ChEMBL ID>  (381) 
CHEMBL3639188

>  <Source Description>  (381) 
BindingDB Database

>  <Document Journal>  (381) 
nan

>  <Document Year>  (381) 
2014.0

>  <Active>  (381) 
1.0

>  <bits>  (381) 
<rdkit.DataStructs.cDataStructs.ExplicitBitVect object at 0x00000159F543CCF0>

>  <Group>  (381) 
G2

$$$$

     RDKit          2D

 31 34  0  0  0  0  0  0  0  0999 V2000
   -3.7548   -2.1855    0.0000 O   0  0  0  0  0  0  0  0  0  0  0  0
   -2.6401   -3.1891    0.0000 C   0  0  0  0  0  0  0  0  0  0  0  0
   -2.9520   -4.6564    0.0000 N   0  0  0  0  0  0  0  0  0  0  0  0
   -4.3786   -5.1199    0.0000 C   0  0  0  0  0  0  0  0  0  0  0  0
   -4.6904   -6.5871    0.0000 C   0  0  0  0  0  0  0  0  0  0  0  0
   -3.5757   -7.5908    0.0000 O   0  0  0  0  0  0  0  0  0  0  0  0
   -6.1170   -7.0506    0.0000 C   0  0  0  0  0  0  0  0  0  0  0  0
   -6.4289   -8.5179    0.0000 O   0  0  0  0  0  0  0  0  0  0  0  0
   -1.2135   -2.7256    0.0000 C   0  0  0  0  0  0  0  0  0  0  0  0
   -0.0000   -3.6073    0.0000 C   0  0  0  0  0  0  0  0  0  0  0  0
    1.2135   -2.7256    0.0000 N   0  0  0  0  0  0  0  0  0  0  0  0
    0.7500   -1.2990    0.0000 N   0  0  0  0  0  0  0  0  0  0  0  0
    1.5000    0.0000    0.0000 C   0  0  0  0  0  0  0  0  0  0  0  0
    0.7500    1.2990    0.0000 C   0  0  0  0  0  0  0  0  0  0  0  0
   -0.7500    1.2990    0.0000 C   0  0  0  0  0  0  0  0  0  0  0  0
   -1.5000    2.5981    0.0000 N   0  0  0  0  0  0  0  0  0  0  0  0
   -2.9918    2.7549    0.0000 C   0  0  0  0  0  0  0  0  0  0  0  0
   -3.3037    4.2221    0.0000 C   0  0  0  0  0  0  0  0  0  0  0  0
   -2.0046    4.9721    0.0000 C   0  0  0  0  0  0  0  0  0  0  0  0
   -0.8899    3.9684    0.0000 C   0  0  0  0  0  0  0  0  0  0  0  0
    0.5773    4.2803    0.0000 C   0  0  0  0  0  0  0  0  0  0  0  0
    1.5810    3.1655    0.0000 C   0  0  0  0  0  0  0  0  0  0  0  0
    3.0482    3.4774    0.0000 C   0  0  0  0  0  0  0  0  0  0  0  0
    4.0519    2.3627    0.0000 F   0  0  0  0  0  0  0  0  0  0  0  0
    3.5118    4.9040    0.0000 C   0  0  0  0  0  0  0  0  0  0  0  0
    2.5081    6.0187    0.0000 C   0  0  0  0  0  0  0  0  0  0  0  0
    1.0409    5.7068    0.0000 C   0  0  0  0  0  0  0  0  0  0  0  0
    0.0372    6.8216    0.0000 C   0  0  0  0  0  0  0  0  0  0  0  0
    0.5007    8.2481    0.0000 O   0  0  0  0  0  0  0  0  0  0  0  0
   -1.5000    0.0000    0.0000 N   0  0  0  0  0  0  0  0  0  0  0  0
   -0.7500   -1.2990    0.0000 C   0  0  0  0  0  0  0  0  0  0  0  0
  1  2  2  0
  2  3  1  0
  3  4  1  0
  4  5  1  0
  5  6  1  0
  5  7  1  0
  7  8  1  0
  2  9  1  0
  9 10  1  0
 10 11  2  0
 11 12  1  0
 12 13  1  0
 13 14  2  0
 14 15  1  0
 15 16  1  0
 16 17  1  0
 17 18  1  0
 18 19  1  0
 19 20  1  0
 20 21  1  0
 21 22  2  0
 22 23  1  0
 23 24  1  0
 23 25  2  0
 25 26  1  0
 26 27  2  0
 27 28  1  0
 28 29  1  0
 15 30  2  0
 30 31  1  0
 31  9  2  0
 31 12  1  0
 20 16  1  0
 27 21  1  0
M  END
>  <Compound_ID>  (382) 
CHEMBL3675932

>  <Molecule Name>  (382) 
nan

>  <Molecular Weight>  (382) 
429.45

>  <AlogP>  (382) 
0.79

>  <Smiles>  (382) 
O=C(NCC(O)CO)c1cnn2ccc(N3CCCC3c3cc(F)ccc3CO)nc12

>  <Standard Type>  (382) 
IC50

>  <Standard Relation>  (382) 
'='

>  <Standard Units>  (382) 
nM

>  <Standard Value>  (382) 
1.0

>  <Assay ChEMBL ID>  (382) 
CHEMBL3887070

>  <Assay Description>  (382) 
ELISA Assay: An enzyme-linked immunosorbant assay (ELISA) was used to assess TrkA kinase activity in the presence of inhibitors. Immulon 4HBX 384-well microtiter plates (Thermo part #8755) were coated with a 0.025 mg/mL solution of poly (Glu, Ala, Tyr; 6:3:1; Sigma P3899). Various concentrations of test compound, 2.5 nM TrkA (Invitrogen Corp., histidine-tagged recombinant human TrkA, cytoplasmic domain), and 500 uM ATP were incubated for 25 minutes at ambient temperature in the coated plates while shaking The assay buffer consisted of 25 mM MOPS pH 7.5, 0.005% (v/v) Triton X-100 and 5 mM MgCl2. The reaction mixture was removed from the plate by washing with PBS containing 0.1% (v/v) Tween 20. The phosphorylated reaction product was detected using 0.2 ug/mL of a phosphotyrosine specific monoclonal antibody (clone PY20) conjugated to horseradish peroxidase in conjunction with the TMB Peroxidase Substrate System (KPL).

>  <BAO Format ID>  (382) 
BAO_0000357

>  <BAO Label>  (382) 
single protein format

>  <Assay Organism>  (382) 
None

>  <Target ChEMBL ID>  (382) 
CHEMBL2815

>  <Target Name>  (382) 
Nerve growth factor receptor Trk-A

>  <Target Organism>  (382) 
Homo sapiens

>  <Target Type>  (382) 
SINGLE PROTEIN

>  <Document ChEMBL ID>  (382) 
CHEMBL3638907

>  <Source Description>  (382) 
BindingDB Database

>  <Document Journal>  (382) 
nan

>  <Document Year>  (382) 
2014.0

>  <Active>  (382) 
1.0

>  <bits>  (382) 
<rdkit.DataStructs.cDataStructs.ExplicitBitVect object at 0x00000159F543E340>

>  <Group>  (382) 
G2

$$$$

     RDKit          2D

 32 36  0  0  0  0  0  0  0  0999 V2000
   -8.6583   -6.5105    0.0000 C   0  0  0  0  0  0  0  0  0  0  0  0
   -7.2317   -6.0469    0.0000 C   0  0  0  0  0  0  0  0  0  0  0  0
   -6.9199   -4.5797    0.0000 C   0  0  0  0  0  0  0  0  0  0  0  0
   -5.4933   -4.1162    0.0000 N   0  0  0  0  0  0  0  0  0  0  0  0
   -4.3786   -5.1199    0.0000 C   0  0  0  0  0  0  0  0  0  0  0  0
   -2.9520   -4.6564    0.0000 C   0  0  0  0  0  0  0  0  0  0  0  0
   -1.8373   -5.6601    0.0000 O   0  0  0  0  0  0  0  0  0  0  0  0
   -2.6401   -3.1891    0.0000 N   0  0  0  0  0  0  0  0  0  0  0  0
   -1.2135   -2.7256    0.0000 C   0  0  0  0  0  0  0  0  0  0  0  0
   -0.0000   -3.6073    0.0000 C   0  0  0  0  0  0  0  0  0  0  0  0
    1.2135   -2.7256    0.0000 N   0  0  0  0  0  0  0  0  0  0  0  0
    0.7500   -1.2990    0.0000 N   0  0  0  0  0  0  0  0  0  0  0  0
    1.5000    0.0000    0.0000 C   0  0  0  0  0  0  0  0  0  0  0  0
    0.7500    1.2990    0.0000 C   0  0  0  0  0  0  0  0  0  0  0  0
   -0.7500    1.2990    0.0000 C   0  0  0  0  0  0  0  0  0  0  0  0
   -1.5000    2.5981    0.0000 N   0  0  0  0  0  0  0  0  0  0  0  0
   -2.9918    2.7549    0.0000 C   0  0  0  0  0  0  0  0  0  0  0  0
   -3.3037    4.2221    0.0000 C   0  0  0  0  0  0  0  0  0  0  0  0
   -2.0046    4.9721    0.0000 C   0  0  0  0  0  0  0  0  0  0  0  0
   -0.8899    3.9684    0.0000 C   0  0  0  0  0  0  0  0  0  0  0  0
    0.5773    4.2803    0.0000 C   0  0  0  0  0  0  0  0  0  0  0  0
    1.5810    3.1655    0.0000 C   0  0  0  0  0  0  0  0  0  0  0  0
    3.0482    3.4774    0.0000 C   0  0  0  0  0  0  0  0  0  0  0  0
    4.0519    2.3627    0.0000 F   0  0  0  0  0  0  0  0  0  0  0  0
    3.5118    4.9040    0.0000 C   0  0  0  0  0  0  0  0  0  0  0  0
    2.5081    6.0187    0.0000 C   0  0  0  0  0  0  0  0  0  0  0  0
    1.0409    5.7068    0.0000 C   0  0  0  0  0  0  0  0  0  0  0  0
    0.0372    6.8216    0.0000 F   0  0  0  0  0  0  0  0  0  0  0  0
   -1.5000    0.0000    0.0000 N   0  0  0  0  0  0  0  0  0  0  0  0
   -0.7500   -1.2990    0.0000 C   0  0  0  0  0  0  0  0  0  0  0  0
   -4.6904   -6.5871    0.0000 C   0  0  0  0  0  0  0  0  0  0  0  0
   -6.1170   -7.0506    0.0000 N   0  0  0  0  0  0  0  0  0  0  0  0
  1  2  1  0
  2  3  2  0
  3  4  1  0
  4  5  2  0
  5  6  1  0
  6  7  2  0
  6  8  1  0
  8  9  1  0
  9 10  1  0
 10 11  2  0
 11 12  1  0
 12 13  1  0
 13 14  2  0
 14 15  1  0
 15 16  1  0
 16 17  1  0
 17 18  1  0
 18 19  1  0
 19 20  1  0
 20 21  1  6
 21 22  2  0
 22 23  1  0
 23 24  1  0
 23 25  2  0
 25 26  1  0
 26 27  2  0
 27 28  1  0
 15 29  2  0
 29 30  1  0
  5 31  1  0
 31 32  2  0
 32  2  1  0
 30  9  2  0
 30 12  1  0
 20 16  1  0
 27 21  1  0
M  END
>  <Compound_ID>  (383) 
CHEMBL4107063

>  <Molecule Name>  (383) 
nan

>  <Molecular Weight>  (383) 
435.44

>  <AlogP>  (383) 
3.7

>  <Smiles>  (383) 
Cc1cnc(C(=O)Nc2cnn3ccc(N4CCC[C@@H]4c4cc(F)ccc4F)nc23)cn1

>  <Standard Type>  (383) 
IC50

>  <Standard Relation>  (383) 
'='

>  <Standard Units>  (383) 
nM

>  <Standard Value>  (383) 
3.1

>  <Assay ChEMBL ID>  (383) 
CHEMBL3887076

>  <Assay Description>  (383) 
ELISA Assay: An enzyme-linked immunosorbant assay (ELISA) was used to assess TrkA kinase activity in the presence of inhibitors. Immulon 4HBX 384-well microtiter plates (Thermo part #8755) were coated with a 0.025 mg/mL solution of poly (Glu, Ala, Tyr; 6:3:1; Sigma P3899). Various concentrations of test compound, 2.5 nM TrkA (Invitrogen Corp., histidine-tagged recombinant human TrkA, cytoplasmic domain), and 500 uM ATP were incubated for 25 minutes at ambient temperature in the coated plates while shaking. The assay buffer consisted of 25 mM MOPS pH 7.5, 0.005% (v/v) Triton X-100 and 5 mM MgCl2. The reaction mixture was removed from the plate by washing with PBS containing 0.1% (v/v) Tween 20. The phosphorylated reaction product was detected using 0.2 ug/mL of a phosphotyrosine specific monoclonal antibody (clone PY20) conjugated to horseradish peroxidase in conjunction with the TMB Peroxidase Substrate System (KPL).

>  <BAO Format ID>  (383) 
BAO_0000357

>  <BAO Label>  (383) 
single protein format

>  <Assay Organism>  (383) 
None

>  <Target ChEMBL ID>  (383) 
CHEMBL2815

>  <Target Name>  (383) 
Nerve growth factor receptor Trk-A

>  <Target Organism>  (383) 
Homo sapiens

>  <Target Type>  (383) 
SINGLE PROTEIN

>  <Document ChEMBL ID>  (383) 
CHEMBL3886151

>  <Source Description>  (383) 
BindingDB Database

>  <Document Journal>  (383) 
nan

>  <Document Year>  (383) 
2014.0

>  <Active>  (383) 
1.0

>  <bits>  (383) 
<rdkit.DataStructs.cDataStructs.ExplicitBitVect object at 0x00000159F543C510>

>  <Group>  (383) 
G2

$$$$

     RDKit          2D

 31 35  0  0  0  0  0  0  0  0999 V2000
   -4.6904   -3.6527    0.0000 C   0  0  0  0  0  0  0  0  0  0  0  0
   -4.3786   -5.1199    0.0000 C   0  0  0  0  0  0  0  0  0  0  0  0
   -2.9520   -4.6564    0.0000 C   0  0  0  0  0  0  0  0  0  0  0  0
   -1.8373   -5.6601    0.0000 O   0  0  0  0  0  0  0  0  0  0  0  0
   -2.6401   -3.1891    0.0000 N   0  0  0  0  0  0  0  0  0  0  0  0
   -1.2135   -2.7256    0.0000 C   0  0  0  0  0  0  0  0  0  0  0  0
   -0.0000   -3.6073    0.0000 C   0  0  0  0  0  0  0  0  0  0  0  0
    1.2135   -2.7256    0.0000 N   0  0  0  0  0  0  0  0  0  0  0  0
    0.7500   -1.2990    0.0000 N   0  0  0  0  0  0  0  0  0  0  0  0
    1.5000    0.0000    0.0000 C   0  0  0  0  0  0  0  0  0  0  0  0
    0.7500    1.2990    0.0000 C   0  0  0  0  0  0  0  0  0  0  0  0
   -0.7500    1.2990    0.0000 C   0  0  0  0  0  0  0  0  0  0  0  0
   -1.5000    2.5981    0.0000 N   0  0  0  0  0  0  0  0  0  0  0  0
   -2.9918    2.7549    0.0000 C   0  0  0  0  0  0  0  0  0  0  0  0
   -3.3037    4.2221    0.0000 C   0  0  0  0  0  0  0  0  0  0  0  0
   -2.0046    4.9721    0.0000 C   0  0  0  0  0  0  0  0  0  0  0  0
   -0.8899    3.9684    0.0000 C   0  0  0  0  0  0  0  0  0  0  0  0
    0.5773    4.2803    0.0000 C   0  0  0  0  0  0  0  0  0  0  0  0
    1.5810    3.1655    0.0000 C   0  0  0  0  0  0  0  0  0  0  0  0
    3.0482    3.4774    0.0000 C   0  0  0  0  0  0  0  0  0  0  0  0
    4.0519    2.3627    0.0000 F   0  0  0  0  0  0  0  0  0  0  0  0
    3.5118    4.9040    0.0000 C   0  0  0  0  0  0  0  0  0  0  0  0
    2.5081    6.0187    0.0000 C   0  0  0  0  0  0  0  0  0  0  0  0
    1.0409    5.7068    0.0000 C   0  0  0  0  0  0  0  0  0  0  0  0
    0.0372    6.8216    0.0000 F   0  0  0  0  0  0  0  0  0  0  0  0
   -1.5000    0.0000    0.0000 N   0  0  0  0  0  0  0  0  0  0  0  0
   -0.7500   -1.2990    0.0000 C   0  0  0  0  0  0  0  0  0  0  0  0
   -5.8703   -5.2767    0.0000 C   0  0  0  0  0  0  0  0  0  0  0  0
   -6.1822   -6.7439    0.0000 C   0  0  0  0  0  0  0  0  0  0  0  0
   -4.8832   -7.4939    0.0000 C   0  0  0  0  0  0  0  0  0  0  0  0
   -3.7685   -6.4902    0.0000 N   0  0  0  0  0  0  0  0  0  0  0  0
  2  1  1  1
  2  3  1  0
  3  4  2  0
  3  5  1  0
  5  6  1  0
  6  7  1  0
  7  8  2  0
  8  9  1  0
  9 10  1  0
 10 11  2  0
 11 12  1  0
 12 13  1  0
 13 14  1  0
 14 15  1  0
 15 16  1  0
 16 17  1  0
 17 18  1  6
 18 19  2  0
 19 20  1  0
 20 21  1  0
 20 22  2  0
 22 23  1  0
 23 24  2  0
 24 25  1  0
 12 26  2  0
 26 27  1  0
  2 28  1  0
 28 29  1  0
 29 30  1  0
 30 31  1  0
 31  2  1  0
 27  6  2  0
 27  9  1  0
 17 13  1  0
 24 18  1  0
M  END
>  <Compound_ID>  (384) 
CHEMBL4108915

>  <Molecule Name>  (384) 
nan

>  <Molecular Weight>  (384) 
426.47

>  <AlogP>  (384) 
3.43

>  <Smiles>  (384) 
C[C@]1(C(=O)Nc2cnn3ccc(N4CCC[C@@H]4c4cc(F)ccc4F)nc23)CCCN1

>  <Standard Type>  (384) 
IC50

>  <Standard Relation>  (384) 
'='

>  <Standard Units>  (384) 
nM

>  <Standard Value>  (384) 
31.0

>  <Assay ChEMBL ID>  (384) 
CHEMBL3887076

>  <Assay Description>  (384) 
ELISA Assay: An enzyme-linked immunosorbant assay (ELISA) was used to assess TrkA kinase activity in the presence of inhibitors. Immulon 4HBX 384-well microtiter plates (Thermo part #8755) were coated with a 0.025 mg/mL solution of poly (Glu, Ala, Tyr; 6:3:1; Sigma P3899). Various concentrations of test compound, 2.5 nM TrkA (Invitrogen Corp., histidine-tagged recombinant human TrkA, cytoplasmic domain), and 500 uM ATP were incubated for 25 minutes at ambient temperature in the coated plates while shaking. The assay buffer consisted of 25 mM MOPS pH 7.5, 0.005% (v/v) Triton X-100 and 5 mM MgCl2. The reaction mixture was removed from the plate by washing with PBS containing 0.1% (v/v) Tween 20. The phosphorylated reaction product was detected using 0.2 ug/mL of a phosphotyrosine specific monoclonal antibody (clone PY20) conjugated to horseradish peroxidase in conjunction with the TMB Peroxidase Substrate System (KPL).

>  <BAO Format ID>  (384) 
BAO_0000357

>  <BAO Label>  (384) 
single protein format

>  <Assay Organism>  (384) 
None

>  <Target ChEMBL ID>  (384) 
CHEMBL2815

>  <Target Name>  (384) 
Nerve growth factor receptor Trk-A

>  <Target Organism>  (384) 
Homo sapiens

>  <Target Type>  (384) 
SINGLE PROTEIN

>  <Document ChEMBL ID>  (384) 
CHEMBL3886151

>  <Source Description>  (384) 
BindingDB Database

>  <Document Journal>  (384) 
nan

>  <Document Year>  (384) 
2014.0

>  <Active>  (384) 
1.0

>  <bits>  (384) 
<rdkit.DataStructs.cDataStructs.ExplicitBitVect object at 0x00000159F543D230>

>  <Group>  (384) 
G2

$$$$

     RDKit          2D

 31 35  0  0  0  0  0  0  0  0999 V2000
   -1.8373   -5.6601    0.0000 O   0  0  0  0  0  0  0  0  0  0  0  0
   -2.9520   -4.6564    0.0000 C   0  0  0  0  0  0  0  0  0  0  0  0
   -2.6401   -3.1891    0.0000 N   0  0  0  0  0  0  0  0  0  0  0  0
   -1.2135   -2.7256    0.0000 C   0  0  0  0  0  0  0  0  0  0  0  0
   -0.0000   -3.6073    0.0000 C   0  0  0  0  0  0  0  0  0  0  0  0
    1.2135   -2.7256    0.0000 N   0  0  0  0  0  0  0  0  0  0  0  0
    0.7500   -1.2990    0.0000 N   0  0  0  0  0  0  0  0  0  0  0  0
    1.5000    0.0000    0.0000 C   0  0  0  0  0  0  0  0  0  0  0  0
    0.7500    1.2990    0.0000 C   0  0  0  0  0  0  0  0  0  0  0  0
   -0.7500    1.2990    0.0000 C   0  0  0  0  0  0  0  0  0  0  0  0
   -1.5000    2.5981    0.0000 N   0  0  0  0  0  0  0  0  0  0  0  0
   -2.9918    2.7549    0.0000 C   0  0  0  0  0  0  0  0  0  0  0  0
   -3.3037    4.2221    0.0000 C   0  0  0  0  0  0  0  0  0  0  0  0
   -2.0046    4.9721    0.0000 C   0  0  0  0  0  0  0  0  0  0  0  0
   -0.8899    3.9684    0.0000 C   0  0  0  0  0  0  0  0  0  0  0  0
    0.5773    4.2803    0.0000 C   0  0  0  0  0  0  0  0  0  0  0  0
    1.5810    3.1655    0.0000 C   0  0  0  0  0  0  0  0  0  0  0  0
    3.0482    3.4774    0.0000 C   0  0  0  0  0  0  0  0  0  0  0  0
    4.0519    2.3627    0.0000 F   0  0  0  0  0  0  0  0  0  0  0  0
    3.5118    4.9040    0.0000 C   0  0  0  0  0  0  0  0  0  0  0  0
    2.5081    6.0187    0.0000 C   0  0  0  0  0  0  0  0  0  0  0  0
    1.0409    5.7068    0.0000 C   0  0  0  0  0  0  0  0  0  0  0  0
    0.0372    6.8216    0.0000 Cl  0  0  0  0  0  0  0  0  0  0  0  0
   -1.5000    0.0000    0.0000 N   0  0  0  0  0  0  0  0  0  0  0  0
   -0.7500   -1.2990    0.0000 C   0  0  0  0  0  0  0  0  0  0  0  0
   -4.3786   -5.1199    0.0000 N   0  0  0  0  0  0  0  0  0  0  0  0
   -4.8421   -6.5465    0.0000 C   0  0  0  0  0  0  0  0  0  0  0  0
   -6.3421   -6.5465    0.0000 C   0  0  0  0  0  0  0  0  0  0  0  0
   -6.8056   -5.1199    0.0000 C   0  0  0  0  0  0  0  0  0  0  0  0
   -8.2322   -4.6564    0.0000 O   0  0  0  0  0  0  0  0  0  0  0  0
   -5.5921   -4.2382    0.0000 C   0  0  0  0  0  0  0  0  0  0  0  0
  1  2  2  0
  2  3  1  0
  3  4  1  0
  4  5  1  0
  5  6  2  0
  6  7  1  0
  7  8  1  0
  8  9  2  0
  9 10  1  0
 10 11  1  0
 11 12  1  0
 12 13  1  0
 13 14  1  0
 14 15  1  0
 15 16  1  6
 16 17  2  0
 17 18  1  0
 18 19  1  0
 18 20  2  0
 20 21  1  0
 21 22  2  0
 22 23  1  0
 10 24  2  0
 24 25  1  0
  2 26  1  0
 26 27  1  0
 27 28  1  0
 28 29  1  0
 29 30  1  1
 29 31  1  0
 25  4  2  0
 31 26  1  0
 25  7  1  0
 15 11  1  0
 22 16  1  0
M  END
>  <Compound_ID>  (385) 
CHEMBL4112642

>  <Molecule Name>  (385) 
nan

>  <Molecular Weight>  (385) 
444.9

>  <AlogP>  (385) 
3.46

>  <Smiles>  (385) 
O=C(Nc1cnn2ccc(N3CCC[C@@H]3c3cc(F)ccc3Cl)nc12)N1CC[C@@H](O)C1

>  <Standard Type>  (385) 
IC50

>  <Standard Relation>  (385) 
'='

>  <Standard Units>  (385) 
nM

>  <Standard Value>  (385) 
4.1

>  <Assay ChEMBL ID>  (385) 
CHEMBL3887076

>  <Assay Description>  (385) 
ELISA Assay: An enzyme-linked immunosorbant assay (ELISA) was used to assess TrkA kinase activity in the presence of inhibitors. Immulon 4HBX 384-well microtiter plates (Thermo part #8755) were coated with a 0.025 mg/mL solution of poly (Glu, Ala, Tyr; 6:3:1; Sigma P3899). Various concentrations of test compound, 2.5 nM TrkA (Invitrogen Corp., histidine-tagged recombinant human TrkA, cytoplasmic domain), and 500 uM ATP were incubated for 25 minutes at ambient temperature in the coated plates while shaking. The assay buffer consisted of 25 mM MOPS pH 7.5, 0.005% (v/v) Triton X-100 and 5 mM MgCl2. The reaction mixture was removed from the plate by washing with PBS containing 0.1% (v/v) Tween 20. The phosphorylated reaction product was detected using 0.2 ug/mL of a phosphotyrosine specific monoclonal antibody (clone PY20) conjugated to horseradish peroxidase in conjunction with the TMB Peroxidase Substrate System (KPL).

>  <BAO Format ID>  (385) 
BAO_0000357

>  <BAO Label>  (385) 
single protein format

>  <Assay Organism>  (385) 
None

>  <Target ChEMBL ID>  (385) 
CHEMBL2815

>  <Target Name>  (385) 
Nerve growth factor receptor Trk-A

>  <Target Organism>  (385) 
Homo sapiens

>  <Target Type>  (385) 
SINGLE PROTEIN

>  <Document ChEMBL ID>  (385) 
CHEMBL3886151

>  <Source Description>  (385) 
BindingDB Database

>  <Document Journal>  (385) 
nan

>  <Document Year>  (385) 
2014.0

>  <Active>  (385) 
1.0

>  <bits>  (385) 
<rdkit.DataStructs.cDataStructs.ExplicitBitVect object at 0x00000159F543C120>

>  <Group>  (385) 
G2

$$$$

     RDKit          2D

 32 36  0  0  0  0  0  0  0  0999 V2000
   -3.5757   -7.5908    0.0000 C   0  0  0  0  0  0  0  0  0  0  0  0
   -4.6904   -6.5871    0.0000 C   0  0  0  0  0  0  0  0  0  0  0  0
   -6.1170   -7.0506    0.0000 C   0  0  0  0  0  0  0  0  0  0  0  0
   -7.2317   -6.0469    0.0000 C   0  0  0  0  0  0  0  0  0  0  0  0
   -6.9199   -4.5797    0.0000 C   0  0  0  0  0  0  0  0  0  0  0  0
   -5.4933   -4.1162    0.0000 N   0  0  0  0  0  0  0  0  0  0  0  0
   -4.3786   -5.1199    0.0000 C   0  0  0  0  0  0  0  0  0  0  0  0
   -2.9520   -4.6564    0.0000 C   0  0  0  0  0  0  0  0  0  0  0  0
   -1.8373   -5.6601    0.0000 O   0  0  0  0  0  0  0  0  0  0  0  0
   -2.6401   -3.1891    0.0000 N   0  0  0  0  0  0  0  0  0  0  0  0
   -1.2135   -2.7256    0.0000 C   0  0  0  0  0  0  0  0  0  0  0  0
   -0.0000   -3.6073    0.0000 C   0  0  0  0  0  0  0  0  0  0  0  0
    1.2135   -2.7256    0.0000 N   0  0  0  0  0  0  0  0  0  0  0  0
    0.7500   -1.2990    0.0000 N   0  0  0  0  0  0  0  0  0  0  0  0
    1.5000    0.0000    0.0000 C   0  0  0  0  0  0  0  0  0  0  0  0
    0.7500    1.2990    0.0000 C   0  0  0  0  0  0  0  0  0  0  0  0
   -0.7500    1.2990    0.0000 C   0  0  0  0  0  0  0  0  0  0  0  0
   -1.5000    2.5981    0.0000 N   0  0  0  0  0  0  0  0  0  0  0  0
   -2.9918    2.7549    0.0000 C   0  0  0  0  0  0  0  0  0  0  0  0
   -3.3037    4.2221    0.0000 C   0  0  0  0  0  0  0  0  0  0  0  0
   -2.0046    4.9721    0.0000 C   0  0  0  0  0  0  0  0  0  0  0  0
   -0.8899    3.9684    0.0000 C   0  0  0  0  0  0  0  0  0  0  0  0
    0.5773    4.2803    0.0000 C   0  0  0  0  0  0  0  0  0  0  0  0
    1.5810    3.1655    0.0000 C   0  0  0  0  0  0  0  0  0  0  0  0
    3.0482    3.4774    0.0000 C   0  0  0  0  0  0  0  0  0  0  0  0
    4.0519    2.3627    0.0000 F   0  0  0  0  0  0  0  0  0  0  0  0
    3.5118    4.9040    0.0000 C   0  0  0  0  0  0  0  0  0  0  0  0
    2.5081    6.0187    0.0000 C   0  0  0  0  0  0  0  0  0  0  0  0
    1.0409    5.7068    0.0000 C   0  0  0  0  0  0  0  0  0  0  0  0
    0.0372    6.8216    0.0000 F   0  0  0  0  0  0  0  0  0  0  0  0
   -1.5000    0.0000    0.0000 N   0  0  0  0  0  0  0  0  0  0  0  0
   -0.7500   -1.2990    0.0000 C   0  0  0  0  0  0  0  0  0  0  0  0
  1  2  1  0
  2  3  2  0
  3  4  1  0
  4  5  2  0
  5  6  1  0
  6  7  2  0
  7  8  1  0
  8  9  2  0
  8 10  1  0
 10 11  1  0
 11 12  1  0
 12 13  2  0
 13 14  1  0
 14 15  1  0
 15 16  2  0
 16 17  1  0
 17 18  1  0
 18 19  1  0
 19 20  1  0
 20 21  1  0
 21 22  1  0
 22 23  1  6
 23 24  2  0
 24 25  1  0
 25 26  1  0
 25 27  2  0
 27 28  1  0
 28 29  2  0
 29 30  1  0
 17 31  2  0
 31 32  1  0
  7  2  1  0
 32 11  2  0
 32 14  1  0
 22 18  1  0
 29 23  1  0
M  END
>  <Compound_ID>  (386) 
CHEMBL4114873

>  <Molecule Name>  (386) 
nan

>  <Molecular Weight>  (386) 
434.45

>  <AlogP>  (386) 
4.3

>  <Smiles>  (386) 
Cc1cccnc1C(=O)Nc1cnn2ccc(N3CCC[C@@H]3c3cc(F)ccc3F)nc12

>  <Standard Type>  (386) 
IC50

>  <Standard Relation>  (386) 
'='

>  <Standard Units>  (386) 
nM

>  <Standard Value>  (386) 
1.7

>  <Assay ChEMBL ID>  (386) 
CHEMBL3887076

>  <Assay Description>  (386) 
ELISA Assay: An enzyme-linked immunosorbant assay (ELISA) was used to assess TrkA kinase activity in the presence of inhibitors. Immulon 4HBX 384-well microtiter plates (Thermo part #8755) were coated with a 0.025 mg/mL solution of poly (Glu, Ala, Tyr; 6:3:1; Sigma P3899). Various concentrations of test compound, 2.5 nM TrkA (Invitrogen Corp., histidine-tagged recombinant human TrkA, cytoplasmic domain), and 500 uM ATP were incubated for 25 minutes at ambient temperature in the coated plates while shaking. The assay buffer consisted of 25 mM MOPS pH 7.5, 0.005% (v/v) Triton X-100 and 5 mM MgCl2. The reaction mixture was removed from the plate by washing with PBS containing 0.1% (v/v) Tween 20. The phosphorylated reaction product was detected using 0.2 ug/mL of a phosphotyrosine specific monoclonal antibody (clone PY20) conjugated to horseradish peroxidase in conjunction with the TMB Peroxidase Substrate System (KPL).

>  <BAO Format ID>  (386) 
BAO_0000357

>  <BAO Label>  (386) 
single protein format

>  <Assay Organism>  (386) 
None

>  <Target ChEMBL ID>  (386) 
CHEMBL2815

>  <Target Name>  (386) 
Nerve growth factor receptor Trk-A

>  <Target Organism>  (386) 
Homo sapiens

>  <Target Type>  (386) 
SINGLE PROTEIN

>  <Document ChEMBL ID>  (386) 
CHEMBL3886151

>  <Source Description>  (386) 
BindingDB Database

>  <Document Journal>  (386) 
nan

>  <Document Year>  (386) 
2014.0

>  <Active>  (386) 
1.0

>  <bits>  (386) 
<rdkit.DataStructs.cDataStructs.ExplicitBitVect object at 0x00000159F543F610>

>  <Group>  (386) 
G2

$$$$

     RDKit          2D

 32 36  0  0  0  0  0  0  0  0999 V2000
   -2.9520   -4.6564    0.0000 C   0  0  0  0  0  0  0  0  0  0  0  0
   -2.6401   -3.1891    0.0000 C   0  0  0  0  0  0  0  0  0  0  0  0
   -3.7548   -2.1855    0.0000 C   0  0  0  0  0  0  0  0  0  0  0  0
   -1.2135   -2.7256    0.0000 N   0  0  0  0  0  0  0  0  0  0  0  0
   -0.0000   -3.6073    0.0000 C   0  0  0  0  0  0  0  0  0  0  0  0
    1.2135   -2.7256    0.0000 C   0  0  0  0  0  0  0  0  0  0  0  0
    2.6401   -3.1891    0.0000 C   0  0  0  0  0  0  0  0  0  0  0  0
    3.7548   -2.1855    0.0000 O   0  0  0  0  0  0  0  0  0  0  0  0
    2.9520   -4.6564    0.0000 C   0  0  0  0  0  0  0  0  0  0  0  0
    1.8373   -5.6601    0.0000 C   0  0  0  0  0  0  0  0  0  0  0  0
    2.1491   -7.1273    0.0000 N   0  0  0  0  0  0  0  0  0  0  0  0
    3.5757   -7.5908    0.0000 C   0  0  0  0  0  0  0  0  0  0  0  0
    4.6904   -6.5871    0.0000 C   0  0  0  0  0  0  0  0  0  0  0  0
    6.1170   -7.0506    0.0000 N   0  0  0  0  0  0  0  0  0  0  0  0
    6.4289   -8.5179    0.0000 C   0  0  0  0  0  0  0  0  0  0  0  0
    5.3142   -9.5216    0.0000 O   0  0  0  0  0  0  0  0  0  0  0  0
    7.8555   -8.9814    0.0000 C   0  0  0  0  0  0  0  0  0  0  0  0
    9.0690   -8.0997    0.0000 N   0  0  0  0  0  0  0  0  0  0  0  0
   10.2825   -8.9814    0.0000 O   0  0  0  0  0  0  0  0  0  0  0  0
    9.8190  -10.4080    0.0000 C   0  0  0  0  0  0  0  0  0  0  0  0
    8.3190  -10.4080    0.0000 C   0  0  0  0  0  0  0  0  0  0  0  0
    7.5690  -11.7070    0.0000 C   0  0  0  0  0  0  0  0  0  0  0  0
    8.3190  -13.0060    0.0000 C   0  0  0  0  0  0  0  0  0  0  0  0
    9.8190  -13.0060    0.0000 C   0  0  0  0  0  0  0  0  0  0  0  0
   10.5690  -11.7070    0.0000 C   0  0  0  0  0  0  0  0  0  0  0  0
    4.3786   -5.1199    0.0000 C   0  0  0  0  0  0  0  0  0  0  0  0
    0.7500   -1.2990    0.0000 C   0  0  0  0  0  0  0  0  0  0  0  0
    1.5000    0.0000    0.0000 C   0  0  0  0  0  0  0  0  0  0  0  0
    0.7500    1.2990    0.0000 N   0  0  0  0  0  0  0  0  0  0  0  0
   -0.7500    1.2990    0.0000 C   0  0  0  0  0  0  0  0  0  0  0  0
   -1.5000    0.0000    0.0000 N   0  0  0  0  0  0  0  0  0  0  0  0
   -0.7500   -1.2990    0.0000 C   0  0  0  0  0  0  0  0  0  0  0  0
  1  2  1  0
  2  3  1  0
  2  4  1  0
  4  5  1  0
  5  6  2  0
  6  7  1  0
  7  8  2  0
  7  9  1  0
  9 10  2  0
 10 11  1  0
 11 12  2  0
 12 13  1  0
 13 14  1  0
 14 15  1  0
 15 16  2  0
 15 17  1  0
 17 18  2  0
 18 19  1  0
 19 20  1  0
 20 21  2  0
 21 22  1  0
 22 23  1  0
 23 24  1  0
 24 25  1  0
 13 26  2  0
  6 27  1  0
 27 28  2  0
 28 29  1  0
 29 30  2  0
 30 31  1  0
 31 32  2  0
 32  4  1  0
 26  9  1  0
 32 27  1  0
 21 17  1  0
 25 20  1  0
M  END
>  <Compound_ID>  (387) 
CHEMBL3666399

>  <Molecule Name>  (387) 
nan

>  <Molecular Weight>  (387) 
430.47

>  <AlogP>  (387) 
3.76

>  <Smiles>  (387) 
CC(C)n1cc(C(=O)c2cncc(NC(=O)c3noc4c3CCCC4)c2)c2cncnc21

>  <Standard Type>  (387) 
IC50

>  <Standard Relation>  (387) 
'='

>  <Standard Units>  (387) 
nM

>  <Standard Value>  (387) 
52.0

>  <Assay ChEMBL ID>  (387) 
CHEMBL3887033

>  <Assay Description>  (387) 
Enzyme Assay: Isolated TRK Enzyme assays use the HTRF KinEASE-TK kit (Cisbio Cat# 62TK0PEJ) with recombinant His-tagged cytoplasmic domains of each TRK receptor sourced from Invitrogen (see table below). This activity-assay measures the phosphorylation of tyrosine residues within a substrate from the HTRF kit which has been validated by Cisbio for a variety of tyrosine kinases including the TRK receptors. Assay details: Target:TRKA; Invitrogen Cat# PV3144; Amino acids:aa 441-796; FAC enzyme:4nM; FAC ATP:40uM; Assay Reaction Time:35min.

>  <BAO Format ID>  (387) 
BAO_0000357

>  <BAO Label>  (387) 
single protein format

>  <Assay Organism>  (387) 
None

>  <Target ChEMBL ID>  (387) 
CHEMBL2815

>  <Target Name>  (387) 
Nerve growth factor receptor Trk-A

>  <Target Organism>  (387) 
Homo sapiens

>  <Target Type>  (387) 
SINGLE PROTEIN

>  <Document ChEMBL ID>  (387) 
CHEMBL3639348

>  <Source Description>  (387) 
BindingDB Database

>  <Document Journal>  (387) 
nan

>  <Document Year>  (387) 
2014.0

>  <Active>  (387) 
1.0

>  <bits>  (387) 
<rdkit.DataStructs.cDataStructs.ExplicitBitVect object at 0x00000159F78D3D10>

>  <Group>  (387) 
G2

$$$$

     RDKit          2D

 32 36  0  0  0  0  0  0  0  0999 V2000
   -2.9520   -4.6564    0.0000 C   0  0  0  0  0  0  0  0  0  0  0  0
   -2.6401   -3.1891    0.0000 C   0  0  0  0  0  0  0  0  0  0  0  0
   -3.7548   -2.1855    0.0000 C   0  0  0  0  0  0  0  0  0  0  0  0
   -1.2135   -2.7256    0.0000 N   0  0  0  0  0  0  0  0  0  0  0  0
   -0.0000   -3.6073    0.0000 C   0  0  0  0  0  0  0  0  0  0  0  0
    1.2135   -2.7256    0.0000 C   0  0  0  0  0  0  0  0  0  0  0  0
    2.6401   -3.1891    0.0000 C   0  0  0  0  0  0  0  0  0  0  0  0
    3.7548   -2.1855    0.0000 O   0  0  0  0  0  0  0  0  0  0  0  0
    2.9520   -4.6564    0.0000 C   0  0  0  0  0  0  0  0  0  0  0  0
    1.8373   -5.6601    0.0000 C   0  0  0  0  0  0  0  0  0  0  0  0
    2.1491   -7.1273    0.0000 N   0  0  0  0  0  0  0  0  0  0  0  0
    3.5757   -7.5908    0.0000 C   0  0  0  0  0  0  0  0  0  0  0  0
    4.6904   -6.5871    0.0000 C   0  0  0  0  0  0  0  0  0  0  0  0
    6.1170   -7.0506    0.0000 N   0  0  0  0  0  0  0  0  0  0  0  0
    6.4289   -8.5179    0.0000 C   0  0  0  0  0  0  0  0  0  0  0  0
    5.3142   -9.5216    0.0000 O   0  0  0  0  0  0  0  0  0  0  0  0
    7.8555   -8.9814    0.0000 C   0  0  0  0  0  0  0  0  0  0  0  0
    9.0690   -8.0997    0.0000 N   0  0  0  0  0  0  0  0  0  0  0  0
   10.2825   -8.9814    0.0000 C   0  0  0  0  0  0  0  0  0  0  0  0
    9.8190  -10.4080    0.0000 C   0  0  0  0  0  0  0  0  0  0  0  0
   10.5690  -11.7070    0.0000 C   0  0  0  0  0  0  0  0  0  0  0  0
    9.8190  -13.0061    0.0000 C   0  0  0  0  0  0  0  0  0  0  0  0
    8.3190  -13.0061    0.0000 C   0  0  0  0  0  0  0  0  0  0  0  0
    7.5690  -11.7070    0.0000 C   0  0  0  0  0  0  0  0  0  0  0  0
    8.3190  -10.4080    0.0000 N   0  0  0  0  0  0  0  0  0  0  0  0
    4.3786   -5.1199    0.0000 C   0  0  0  0  0  0  0  0  0  0  0  0
    0.7500   -1.2990    0.0000 C   0  0  0  0  0  0  0  0  0  0  0  0
    1.5000    0.0000    0.0000 C   0  0  0  0  0  0  0  0  0  0  0  0
    0.7500    1.2990    0.0000 N   0  0  0  0  0  0  0  0  0  0  0  0
   -0.7500    1.2990    0.0000 C   0  0  0  0  0  0  0  0  0  0  0  0
   -1.5000    0.0000    0.0000 N   0  0  0  0  0  0  0  0  0  0  0  0
   -0.7500   -1.2990    0.0000 C   0  0  0  0  0  0  0  0  0  0  0  0
  1  2  1  0
  2  3  1  0
  2  4  1  0
  4  5  1  0
  5  6  2  0
  6  7  1  0
  7  8  2  0
  7  9  1  0
  9 10  2  0
 10 11  1  0
 11 12  2  0
 12 13  1  0
 13 14  1  0
 14 15  1  0
 15 16  2  0
 15 17  1  0
 17 18  2  0
 18 19  1  0
 19 20  2  0
 20 21  1  0
 21 22  2  0
 22 23  1  0
 23 24  2  0
 24 25  1  0
 13 26  2  0
  6 27  1  0
 27 28  2  0
 28 29  1  0
 29 30  2  0
 30 31  1  0
 31 32  2  0
 32  4  1  0
 26  9  1  0
 32 27  1  0
 25 17  1  0
 25 20  1  0
M  END
>  <Compound_ID>  (388) 
CHEMBL3666400

>  <Molecule Name>  (388) 
nan

>  <Molecular Weight>  (388) 
425.45

>  <AlogP>  (388) 
3.54

>  <Smiles>  (388) 
CC(C)n1cc(C(=O)c2cncc(NC(=O)c3ncc4ccccn34)c2)c2cncnc21

>  <Standard Type>  (388) 
IC50

>  <Standard Relation>  (388) 
'='

>  <Standard Units>  (388) 
nM

>  <Standard Value>  (388) 
71.2

>  <Assay ChEMBL ID>  (388) 
CHEMBL3887033

>  <Assay Description>  (388) 
Enzyme Assay: Isolated TRK Enzyme assays use the HTRF KinEASE-TK kit (Cisbio Cat# 62TK0PEJ) with recombinant His-tagged cytoplasmic domains of each TRK receptor sourced from Invitrogen (see table below). This activity-assay measures the phosphorylation of tyrosine residues within a substrate from the HTRF kit which has been validated by Cisbio for a variety of tyrosine kinases including the TRK receptors. Assay details: Target:TRKA; Invitrogen Cat# PV3144; Amino acids:aa 441-796; FAC enzyme:4nM; FAC ATP:40uM; Assay Reaction Time:35min.

>  <BAO Format ID>  (388) 
BAO_0000357

>  <BAO Label>  (388) 
single protein format

>  <Assay Organism>  (388) 
None

>  <Target ChEMBL ID>  (388) 
CHEMBL2815

>  <Target Name>  (388) 
Nerve growth factor receptor Trk-A

>  <Target Organism>  (388) 
Homo sapiens

>  <Target Type>  (388) 
SINGLE PROTEIN

>  <Document ChEMBL ID>  (388) 
CHEMBL3639348

>  <Source Description>  (388) 
BindingDB Database

>  <Document Journal>  (388) 
nan

>  <Document Year>  (388) 
2014.0

>  <Active>  (388) 
1.0

>  <bits>  (388) 
<rdkit.DataStructs.cDataStructs.ExplicitBitVect object at 0x00000159F78D0740>

>  <Group>  (388) 
G2

$$$$

     RDKit          2D

 32 36  0  0  0  0  0  0  0  0999 V2000
   -8.6583   -6.5105    0.0000 C   0  0  0  0  0  0  0  0  0  0  0  0
   -7.2317   -6.0469    0.0000 N   0  0  0  0  0  0  0  0  0  0  0  0
   -6.9199   -4.5797    0.0000 C   0  0  0  0  0  0  0  0  0  0  0  0
   -5.4933   -4.1162    0.0000 C   0  0  0  0  0  0  0  0  0  0  0  0
   -4.3786   -5.1199    0.0000 N   0  0  0  0  0  0  0  0  0  0  0  0
   -2.9520   -4.6564    0.0000 C   0  0  0  0  0  0  0  0  0  0  0  0
   -1.8373   -5.6601    0.0000 O   0  0  0  0  0  0  0  0  0  0  0  0
   -2.6401   -3.1891    0.0000 N   0  0  0  0  0  0  0  0  0  0  0  0
   -1.2135   -2.7256    0.0000 C   0  0  0  0  0  0  0  0  0  0  0  0
   -0.0000   -3.6073    0.0000 C   0  0  0  0  0  0  0  0  0  0  0  0
    1.2135   -2.7256    0.0000 N   0  0  0  0  0  0  0  0  0  0  0  0
    0.7500   -1.2990    0.0000 N   0  0  0  0  0  0  0  0  0  0  0  0
    1.5000    0.0000    0.0000 C   0  0  0  0  0  0  0  0  0  0  0  0
    0.7500    1.2990    0.0000 C   0  0  0  0  0  0  0  0  0  0  0  0
   -0.7500    1.2990    0.0000 C   0  0  0  0  0  0  0  0  0  0  0  0
   -1.5000    2.5981    0.0000 N   0  0  0  0  0  0  0  0  0  0  0  0
   -2.9918    2.7549    0.0000 C   0  0  0  0  0  0  0  0  0  0  0  0
   -3.3037    4.2221    0.0000 C   0  0  0  0  0  0  0  0  0  0  0  0
   -2.0046    4.9721    0.0000 C   0  0  0  0  0  0  0  0  0  0  0  0
   -0.8899    3.9684    0.0000 C   0  0  0  0  0  0  0  0  0  0  0  0
    0.5773    4.2803    0.0000 C   0  0  0  0  0  0  0  0  0  0  0  0
    1.5810    3.1655    0.0000 C   0  0  0  0  0  0  0  0  0  0  0  0
    3.0482    3.4774    0.0000 C   0  0  0  0  0  0  0  0  0  0  0  0
    4.0519    2.3627    0.0000 F   0  0  0  0  0  0  0  0  0  0  0  0
    3.5118    4.9040    0.0000 C   0  0  0  0  0  0  0  0  0  0  0  0
    2.5081    6.0187    0.0000 C   0  0  0  0  0  0  0  0  0  0  0  0
    1.0409    5.7068    0.0000 C   0  0  0  0  0  0  0  0  0  0  0  0
    0.0372    6.8216    0.0000 F   0  0  0  0  0  0  0  0  0  0  0  0
   -1.5000    0.0000    0.0000 N   0  0  0  0  0  0  0  0  0  0  0  0
   -0.7500   -1.2990    0.0000 C   0  0  0  0  0  0  0  0  0  0  0  0
   -4.6904   -6.5871    0.0000 C   0  0  0  0  0  0  0  0  0  0  0  0
   -6.1170   -7.0506    0.0000 C   0  0  0  0  0  0  0  0  0  0  0  0
  1  2  1  0
  2  3  1  0
  3  4  1  0
  4  5  1  0
  5  6  1  0
  6  7  2  0
  6  8  1  0
  8  9  1  0
  9 10  1  0
 10 11  2  0
 11 12  1  0
 12 13  1  0
 13 14  2  0
 14 15  1  0
 15 16  1  0
 16 17  1  0
 17 18  1  0
 18 19  1  0
 19 20  1  0
 20 21  1  6
 21 22  2  0
 22 23  1  0
 23 24  1  0
 23 25  2  0
 25 26  1  0
 26 27  2  0
 27 28  1  0
 15 29  2  0
 29 30  1  0
  5 31  1  0
 31 32  1  0
 32  2  1  0
 30  9  2  0
 30 12  1  0
 20 16  1  0
 27 21  1  0
M  END
>  <Compound_ID>  (389) 
CHEMBL4110841

>  <Molecule Name>  (389) 
nan

>  <Molecular Weight>  (389) 
441.49

>  <AlogP>  (389) 
3.13

>  <Smiles>  (389) 
CN1CCN(C(=O)Nc2cnn3ccc(N4CCC[C@@H]4c4cc(F)ccc4F)nc23)CC1

>  <Standard Type>  (389) 
IC50

>  <Standard Relation>  (389) 
'='

>  <Standard Units>  (389) 
nM

>  <Standard Value>  (389) 
57.4

>  <Assay ChEMBL ID>  (389) 
CHEMBL3887076

>  <Assay Description>  (389) 
ELISA Assay: An enzyme-linked immunosorbant assay (ELISA) was used to assess TrkA kinase activity in the presence of inhibitors. Immulon 4HBX 384-well microtiter plates (Thermo part #8755) were coated with a 0.025 mg/mL solution of poly (Glu, Ala, Tyr; 6:3:1; Sigma P3899). Various concentrations of test compound, 2.5 nM TrkA (Invitrogen Corp., histidine-tagged recombinant human TrkA, cytoplasmic domain), and 500 uM ATP were incubated for 25 minutes at ambient temperature in the coated plates while shaking. The assay buffer consisted of 25 mM MOPS pH 7.5, 0.005% (v/v) Triton X-100 and 5 mM MgCl2. The reaction mixture was removed from the plate by washing with PBS containing 0.1% (v/v) Tween 20. The phosphorylated reaction product was detected using 0.2 ug/mL of a phosphotyrosine specific monoclonal antibody (clone PY20) conjugated to horseradish peroxidase in conjunction with the TMB Peroxidase Substrate System (KPL).

>  <BAO Format ID>  (389) 
BAO_0000357

>  <BAO Label>  (389) 
single protein format

>  <Assay Organism>  (389) 
None

>  <Target ChEMBL ID>  (389) 
CHEMBL2815

>  <Target Name>  (389) 
Nerve growth factor receptor Trk-A

>  <Target Organism>  (389) 
Homo sapiens

>  <Target Type>  (389) 
SINGLE PROTEIN

>  <Document ChEMBL ID>  (389) 
CHEMBL3886151

>  <Source Description>  (389) 
BindingDB Database

>  <Document Journal>  (389) 
nan

>  <Document Year>  (389) 
2014.0

>  <Active>  (389) 
1.0

>  <bits>  (389) 
<rdkit.DataStructs.cDataStructs.ExplicitBitVect object at 0x00000159F78D2CE0>

>  <Group>  (389) 
G2

$$$$

     RDKit          2D

 30 33  0  0  0  0  0  0  0  0999 V2000
   -3.9150   -6.5465    0.0000 C   0  0  0  0  0  0  0  0  0  0  0  0
   -4.3786   -5.1199    0.0000 C   0  0  0  0  0  0  0  0  0  0  0  0
   -4.8421   -3.6933    0.0000 C   0  0  0  0  0  0  0  0  0  0  0  0
   -5.8051   -5.5834    0.0000 C   0  0  0  0  0  0  0  0  0  0  0  0
   -2.9520   -4.6564    0.0000 N   0  0  0  0  0  0  0  0  0  0  0  0
   -2.6401   -3.1891    0.0000 C   0  0  0  0  0  0  0  0  0  0  0  0
   -3.7548   -2.1855    0.0000 O   0  0  0  0  0  0  0  0  0  0  0  0
   -1.2135   -2.7256    0.0000 C   0  0  0  0  0  0  0  0  0  0  0  0
   -0.0000   -3.6073    0.0000 C   0  0  0  0  0  0  0  0  0  0  0  0
    1.2135   -2.7256    0.0000 N   0  0  0  0  0  0  0  0  0  0  0  0
    0.7500   -1.2990    0.0000 N   0  0  0  0  0  0  0  0  0  0  0  0
    1.5000    0.0000    0.0000 C   0  0  0  0  0  0  0  0  0  0  0  0
    0.7500    1.2990    0.0000 C   0  0  0  0  0  0  0  0  0  0  0  0
   -0.7500    1.2990    0.0000 C   0  0  0  0  0  0  0  0  0  0  0  0
   -1.5000    2.5981    0.0000 N   0  0  0  0  0  0  0  0  0  0  0  0
   -2.9918    2.7549    0.0000 C   0  0  0  0  0  0  0  0  0  0  0  0
   -3.3037    4.2221    0.0000 C   0  0  0  0  0  0  0  0  0  0  0  0
   -2.0046    4.9721    0.0000 C   0  0  0  0  0  0  0  0  0  0  0  0
   -0.8899    3.9684    0.0000 C   0  0  0  0  0  0  0  0  0  0  0  0
    0.5773    4.2803    0.0000 C   0  0  0  0  0  0  0  0  0  0  0  0
    1.5810    3.1655    0.0000 C   0  0  0  0  0  0  0  0  0  0  0  0
    3.0482    3.4774    0.0000 C   0  0  0  0  0  0  0  0  0  0  0  0
    4.0519    2.3627    0.0000 F   0  0  0  0  0  0  0  0  0  0  0  0
    3.5118    4.9040    0.0000 C   0  0  0  0  0  0  0  0  0  0  0  0
    2.5081    6.0187    0.0000 N   0  0  0  0  0  0  0  0  0  0  0  0
    1.0409    5.7068    0.0000 C   0  0  0  0  0  0  0  0  0  0  0  0
    0.0372    6.8216    0.0000 C   0  0  0  0  0  0  0  0  0  0  0  0
    0.5007    8.2481    0.0000 O   0  0  0  0  0  0  0  0  0  0  0  0
   -1.5000    0.0000    0.0000 N   0  0  0  0  0  0  0  0  0  0  0  0
   -0.7500   -1.2990    0.0000 C   0  0  0  0  0  0  0  0  0  0  0  0
  1  2  1  0
  2  3  1  0
  2  4  1  0
  2  5  1  0
  5  6  1  0
  6  7  2  0
  6  8  1  0
  8  9  1  0
  9 10  2  0
 10 11  1  0
 11 12  1  0
 12 13  2  0
 13 14  1  0
 14 15  1  0
 15 16  1  0
 16 17  1  0
 17 18  1  0
 18 19  1  0
 19 20  1  0
 20 21  2  0
 21 22  1  0
 22 23  1  0
 22 24  2  0
 24 25  1  0
 25 26  2  0
 26 27  1  0
 27 28  1  0
 14 29  2  0
 29 30  1  0
 30  8  2  0
 30 11  1  0
 19 15  1  0
 26 20  1  0
M  END
>  <Compound_ID>  (390) 
CHEMBL3675955

>  <Molecule Name>  (390) 
nan

>  <Molecular Weight>  (390) 
412.47

>  <AlogP>  (390) 
2.63

>  <Smiles>  (390) 
CC(C)(C)NC(=O)c1cnn2ccc(N3CCCC3c3cc(F)cnc3CO)nc12

>  <Standard Type>  (390) 
IC50

>  <Standard Relation>  (390) 
'='

>  <Standard Units>  (390) 
nM

>  <Standard Value>  (390) 
1.8

>  <Assay ChEMBL ID>  (390) 
CHEMBL3887070

>  <Assay Description>  (390) 
ELISA Assay: An enzyme-linked immunosorbant assay (ELISA) was used to assess TrkA kinase activity in the presence of inhibitors. Immulon 4HBX 384-well microtiter plates (Thermo part #8755) were coated with a 0.025 mg/mL solution of poly (Glu, Ala, Tyr; 6:3:1; Sigma P3899). Various concentrations of test compound, 2.5 nM TrkA (Invitrogen Corp., histidine-tagged recombinant human TrkA, cytoplasmic domain), and 500 uM ATP were incubated for 25 minutes at ambient temperature in the coated plates while shaking The assay buffer consisted of 25 mM MOPS pH 7.5, 0.005% (v/v) Triton X-100 and 5 mM MgCl2. The reaction mixture was removed from the plate by washing with PBS containing 0.1% (v/v) Tween 20. The phosphorylated reaction product was detected using 0.2 ug/mL of a phosphotyrosine specific monoclonal antibody (clone PY20) conjugated to horseradish peroxidase in conjunction with the TMB Peroxidase Substrate System (KPL).

>  <BAO Format ID>  (390) 
BAO_0000357

>  <BAO Label>  (390) 
single protein format

>  <Assay Organism>  (390) 
None

>  <Target ChEMBL ID>  (390) 
CHEMBL2815

>  <Target Name>  (390) 
Nerve growth factor receptor Trk-A

>  <Target Organism>  (390) 
Homo sapiens

>  <Target Type>  (390) 
SINGLE PROTEIN

>  <Document ChEMBL ID>  (390) 
CHEMBL3638907

>  <Source Description>  (390) 
BindingDB Database

>  <Document Journal>  (390) 
nan

>  <Document Year>  (390) 
2014.0

>  <Active>  (390) 
1.0

>  <bits>  (390) 
<rdkit.DataStructs.cDataStructs.ExplicitBitVect object at 0x00000159F78D0580>

>  <Group>  (390) 
G2

$$$$

     RDKit          2D

 37 40  0  0  0  0  0  0  0  0999 V2000
   -7.2317   -6.0469    0.0000 C   0  0  0  0  0  0  0  0  0  0  0  0
   -6.1170   -7.0506    0.0000 O   0  0  0  0  0  0  0  0  0  0  0  0
   -4.6904   -6.5871    0.0000 C   0  0  0  0  0  0  0  0  0  0  0  0
   -4.3786   -5.1199    0.0000 C   0  0  0  0  0  0  0  0  0  0  0  0
   -2.9520   -4.6564    0.0000 C   0  0  0  0  0  0  0  0  0  0  0  0
   -2.6401   -3.1891    0.0000 C   0  0  0  0  0  0  0  0  0  0  0  0
   -3.7548   -2.1855    0.0000 C   0  0  0  0  0  0  0  0  0  0  0  0
   -1.2135   -2.7256    0.0000 N   0  0  0  0  0  0  0  0  0  0  0  0
   -0.0000   -3.6073    0.0000 C   0  0  0  0  0  0  0  0  0  0  0  0
    0.0000   -5.1073    0.0000 N   0  0  0  0  0  0  0  0  0  0  0  0
    1.2135   -2.7256    0.0000 N   0  0  0  0  0  0  0  0  0  0  0  0
    0.7500   -1.2990    0.0000 C   0  0  0  0  0  0  0  0  0  0  0  0
    1.5000    0.0000    0.0000 C   0  0  0  0  0  0  0  0  0  0  0  0
    0.7500    1.2990    0.0000 C   0  0  0  0  0  0  0  0  0  0  0  0
    1.5000    2.5981    0.0000 C   0  0  0  0  0  0  0  0  0  0  0  0
    2.2500    3.8971    0.0000 C   0  0  0  0  0  0  0  0  0  0  0  0
    3.0000    5.1962    0.0000 C   0  0  0  0  0  0  0  0  0  0  0  0
    4.5000    5.1962    0.0000 C   0  0  0  0  0  0  0  0  0  0  0  0
    5.2500    6.4952    0.0000 O   0  0  0  0  0  0  0  0  0  0  0  0
   -0.7500    1.2990    0.0000 C   0  0  0  0  0  0  0  0  0  0  0  0
   -1.5000    0.0000    0.0000 N   0  0  0  0  0  0  0  0  0  0  0  0
   -0.7500   -1.2990    0.0000 C   0  0  0  0  0  0  0  0  0  0  0  0
   -1.8373   -5.6601    0.0000 C   0  0  0  0  0  0  0  0  0  0  0  0
   -2.1491   -7.1273    0.0000 C   0  0  0  0  0  0  0  0  0  0  0  0
   -3.5757   -7.5908    0.0000 C   0  0  0  0  0  0  0  0  0  0  0  0
   -3.8876   -9.0580    0.0000 O   0  0  0  0  0  0  0  0  0  0  0  0
   -2.7729  -10.0617    0.0000 C   0  0  0  0  0  0  0  0  0  0  0  0
   -3.0847  -11.5290    0.0000 C   0  0  0  0  0  0  0  0  0  0  0  0
   -4.5113  -11.9925    0.0000 C   0  0  0  0  0  0  0  0  0  0  0  0
   -4.8232  -13.4597    0.0000 C   0  0  0  0  0  0  0  0  0  0  0  0
   -3.7085  -14.4634    0.0000 C   0  0  0  0  0  0  0  0  0  0  0  0
   -4.0203  -15.9306    0.0000 C   0  0  0  0  0  0  0  0  0  0  0  0
   -4.3322  -17.3978    0.0000 F   0  0  0  0  0  0  0  0  0  0  0  0
   -5.4876  -15.6187    0.0000 F   0  0  0  0  0  0  0  0  0  0  0  0
   -2.5531  -16.2425    0.0000 F   0  0  0  0  0  0  0  0  0  0  0  0
   -2.2819  -13.9999    0.0000 N   0  0  0  0  0  0  0  0  0  0  0  0
   -1.9700  -12.5326    0.0000 C   0  0  0  0  0  0  0  0  0  0  0  0
  1  2  1  0
  2  3  1  0
  3  4  2  0
  4  5  1  0
  5  6  1  0
  6  7  1  0
  6  8  1  0
  8  9  1  0
  9 10  1  0
  9 11  2  0
 11 12  1  0
 12 13  2  0
 13 14  1  0
 14 15  1  0
 15 16  3  0
 16 17  1  0
 17 18  1  0
 18 19  1  0
 14 20  2  0
 20 21  1  0
 21 22  2  0
  5 23  2  0
 23 24  1  0
 24 25  2  0
 25 26  1  0
 26 27  1  0
 27 28  1  0
 28 29  2  0
 29 30  1  0
 30 31  2  0
 31 32  1  0
 32 33  1  0
 32 34  1  0
 32 35  1  0
 31 36  1  0
 36 37  2  0
 25  3  1  0
 37 28  1  0
 22  8  1  0
 22 12  1  0
M  END
>  <Compound_ID>  (391) 
CHEMBL3678301

>  <Molecule Name>  (391) 
nan

>  <Molecular Weight>  (391) 
511.5

>  <AlogP>  (391) 
4.36

>  <Smiles>  (391) 
COc1cc(C(C)n2c(N)nc3cc(C#CCCO)cnc32)ccc1OCc1ccc(C(F)(F)F)nc1

>  <Standard Type>  (391) 
IC50

>  <Standard Relation>  (391) 
'='

>  <Standard Units>  (391) 
nM

>  <Standard Value>  (391) 
1.0

>  <Assay ChEMBL ID>  (391) 
CHEMBL3887112

>  <Assay Description>  (391) 
Inhibition Assay: Reagents and consumables were purchased from Sigma Aldrich, Carna Biosciences, or Caliper Life Sciences. All assay reaction conditions for IC50 determinations were within the linear range with respect to time and enzyme concentration. In a 384 well polypropylene plate, TrkA (0.4 nM, Carna 08-186) was pre-incubated in a 100 mM Hepes-NaOH pH 7.5 buffer containing 0.01% Triton X-100, 10 mM MgCl2, 0.1% BSA, 1 mM DTT, 10 uM sodium orthovanadate and 10 uM beta-glycerophosphate and compound with a concentration of 2.5% DMSO for 15 minutes at room temperature. The reaction was initiated with an equal volume of peptide substrate (Caliper Life Sciences catalog no. 760430) and ATP in the aforementioned buffer. The final concentrations in the reaction were 200 pM TrkA, 1.5 uM peptide substrate and 55 uM ATP (ATP Km). The reaction was incubated at room temperature for 180 minutes and terminated with a buffer containing excess EDTA (100 mM Hepes-NaOH pH 7.5, 0.02% Brij.

>  <BAO Format ID>  (391) 
BAO_0000357

>  <BAO Label>  (391) 
single protein format

>  <Assay Organism>  (391) 
None

>  <Target ChEMBL ID>  (391) 
CHEMBL2815

>  <Target Name>  (391) 
Nerve growth factor receptor Trk-A

>  <Target Organism>  (391) 
Homo sapiens

>  <Target Type>  (391) 
SINGLE PROTEIN

>  <Document ChEMBL ID>  (391) 
CHEMBL3638818

>  <Source Description>  (391) 
BindingDB Database

>  <Document Journal>  (391) 
nan

>  <Document Year>  (391) 
2015.0

>  <Active>  (391) 
1.0

>  <bits>  (391) 
<rdkit.DataStructs.cDataStructs.ExplicitBitVect object at 0x00000159F78D05F0>

>  <Group>  (391) 
G2

$$$$

     RDKit          2D

 33 37  0  0  0  0  0  0  0  0999 V2000
    3.0000    0.0000    0.0000 C   0  0  0  0  0  0  0  0  0  0  0  0
    1.5000    0.0000    0.0000 C   0  0  0  0  0  0  0  0  0  0  0  0
    0.7500   -1.2990    0.0000 C   0  0  0  0  0  0  0  0  0  0  0  0
   -0.7500   -1.2990    0.0000 C   0  0  0  0  0  0  0  0  0  0  0  0
   -1.5000    0.0000    0.0000 C   0  0  0  0  0  0  0  0  0  0  0  0
   -0.7500    1.2990    0.0000 C   0  0  0  0  0  0  0  0  0  0  0  0
   -1.2135    2.7256    0.0000 C   0  0  0  0  0  0  0  0  0  0  0  0
   -0.0000    3.6073    0.0000 C   0  0  0  0  0  0  0  0  0  0  0  0
   -0.0000    5.1073    0.0000 C   0  0  0  0  0  0  0  0  0  0  0  0
   -1.2990    5.8573    0.0000 O   0  0  0  0  0  0  0  0  0  0  0  0
    1.2990    5.8573    0.0000 N   0  0  0  0  0  0  0  0  0  0  0  0
    1.2990    7.3573    0.0000 C   0  0  0  0  0  0  0  0  0  0  0  0
    2.5981    8.1073    0.0000 C   0  0  0  0  0  0  0  0  0  0  0  0
    2.5981    9.6073    0.0000 N   0  0  0  0  0  0  0  0  0  0  0  0
    1.2990   10.3573    0.0000 C   0  0  0  0  0  0  0  0  0  0  0  0
   -0.0000    9.6073    0.0000 C   0  0  0  0  0  0  0  0  0  0  0  0
   -1.2990   10.3573    0.0000 C   0  0  0  0  0  0  0  0  0  0  0  0
   -2.5981    9.6073    0.0000 O   0  0  0  0  0  0  0  0  0  0  0  0
   -1.2990   11.8573    0.0000 C   0  0  0  0  0  0  0  0  0  0  0  0
   -0.0855   12.7390    0.0000 C   0  0  0  0  0  0  0  0  0  0  0  0
   -0.5490   14.1656    0.0000 N   0  0  0  0  0  0  0  0  0  0  0  0
    0.3326   15.3791    0.0000 C   0  0  0  0  0  0  0  0  0  0  0  0
    1.8244   15.2223    0.0000 C   0  0  0  0  0  0  0  0  0  0  0  0
   -0.2775   16.7494    0.0000 C   0  0  0  0  0  0  0  0  0  0  0  0
   -2.0490   14.1656    0.0000 C   0  0  0  0  0  0  0  0  0  0  0  0
   -3.0527   15.2803    0.0000 N   0  0  0  0  0  0  0  0  0  0  0  0
   -4.5200   14.9684    0.0000 C   0  0  0  0  0  0  0  0  0  0  0  0
   -4.9835   13.5418    0.0000 N   0  0  0  0  0  0  0  0  0  0  0  0
   -3.9798   12.4271    0.0000 C   0  0  0  0  0  0  0  0  0  0  0  0
   -2.5126   12.7390    0.0000 C   0  0  0  0  0  0  0  0  0  0  0  0
   -0.0000    8.1073    0.0000 C   0  0  0  0  0  0  0  0  0  0  0  0
    1.2135    2.7256    0.0000 N   0  0  0  0  0  0  0  0  0  0  0  0
    0.7500    1.2990    0.0000 N   0  0  0  0  0  0  0  0  0  0  0  0
  1  2  1  0
  2  3  2  0
  3  4  1  0
  4  5  2  0
  5  6  1  0
  6  7  2  0
  7  8  1  0
  8  9  1  0
  9 10  2  0
  9 11  1  0
 11 12  1  0
 12 13  2  0
 13 14  1  0
 14 15  2  0
 15 16  1  0
 16 17  1  0
 17 18  2  0
 17 19  1  0
 19 20  2  0
 20 21  1  0
 21 22  1  0
 22 23  1  0
 22 24  1  0
 21 25  1  0
 25 26  2  0
 26 27  1  0
 27 28  2  0
 28 29  1  0
 29 30  2  0
 16 31  2  0
  8 32  2  0
 32 33  1  0
 33  2  1  0
 33  6  1  0
 31 12  1  0
 30 19  1  0
 30 25  1  0
M  END
>  <Compound_ID>  (392) 
CHEMBL3666457

>  <Molecule Name>  (392) 
nan

>  <Molecular Weight>  (392) 
439.48

>  <AlogP>  (392) 
3.85

>  <Smiles>  (392) 
Cc1cccc2cc(C(=O)Nc3cncc(C(=O)c4cn(C(C)C)c5ncncc45)c3)nn12

>  <Standard Type>  (392) 
IC50

>  <Standard Relation>  (392) 
'='

>  <Standard Units>  (392) 
nM

>  <Standard Value>  (392) 
65.0

>  <Assay ChEMBL ID>  (392) 
CHEMBL3887033

>  <Assay Description>  (392) 
Enzyme Assay: Isolated TRK Enzyme assays use the HTRF KinEASE-TK kit (Cisbio Cat# 62TK0PEJ) with recombinant His-tagged cytoplasmic domains of each TRK receptor sourced from Invitrogen (see table below). This activity-assay measures the phosphorylation of tyrosine residues within a substrate from the HTRF kit which has been validated by Cisbio for a variety of tyrosine kinases including the TRK receptors. Assay details: Target:TRKA; Invitrogen Cat# PV3144; Amino acids:aa 441-796; FAC enzyme:4nM; FAC ATP:40uM; Assay Reaction Time:35min.

>  <BAO Format ID>  (392) 
BAO_0000357

>  <BAO Label>  (392) 
single protein format

>  <Assay Organism>  (392) 
None

>  <Target ChEMBL ID>  (392) 
CHEMBL2815

>  <Target Name>  (392) 
Nerve growth factor receptor Trk-A

>  <Target Organism>  (392) 
Homo sapiens

>  <Target Type>  (392) 
SINGLE PROTEIN

>  <Document ChEMBL ID>  (392) 
CHEMBL3639348

>  <Source Description>  (392) 
BindingDB Database

>  <Document Journal>  (392) 
nan

>  <Document Year>  (392) 
2014.0

>  <Active>  (392) 
1.0

>  <bits>  (392) 
<rdkit.DataStructs.cDataStructs.ExplicitBitVect object at 0x00000159F78D3290>

>  <Group>  (392) 
G2

$$$$

     RDKit          2D

 32 36  0  0  0  0  0  0  0  0999 V2000
   -5.4853   -5.8293    0.0000 C   0  0  0  0  0  0  0  0  0  0  0  0
   -4.6036   -4.6157    0.0000 N   0  0  0  0  0  0  0  0  0  0  0  0
   -3.1036   -4.6157    0.0000 C   0  0  0  0  0  0  0  0  0  0  0  0
   -2.6401   -3.1891    0.0000 C   0  0  0  0  0  0  0  0  0  0  0  0
   -1.2135   -2.7256    0.0000 C   0  0  0  0  0  0  0  0  0  0  0  0
   -0.0000   -3.6073    0.0000 C   0  0  0  0  0  0  0  0  0  0  0  0
    1.2135   -2.7256    0.0000 N   0  0  0  0  0  0  0  0  0  0  0  0
    0.7500   -1.2990    0.0000 N   0  0  0  0  0  0  0  0  0  0  0  0
    1.5000    0.0000    0.0000 C   0  0  0  0  0  0  0  0  0  0  0  0
    0.7500    1.2990    0.0000 C   0  0  0  0  0  0  0  0  0  0  0  0
   -0.7500    1.2990    0.0000 C   0  0  0  0  0  0  0  0  0  0  0  0
   -1.5000    2.5981    0.0000 N   0  0  0  0  0  0  0  0  0  0  0  0
   -2.9918    2.7549    0.0000 C   0  0  0  0  0  0  0  0  0  0  0  0
   -3.3037    4.2221    0.0000 C   0  0  0  0  0  0  0  0  0  0  0  0
   -2.0046    4.9721    0.0000 C   0  0  0  0  0  0  0  0  0  0  0  0
   -0.8899    3.9684    0.0000 C   0  0  0  0  0  0  0  0  0  0  0  0
    0.5773    4.2803    0.0000 C   0  0  0  0  0  0  0  0  0  0  0  0
    1.5810    3.1655    0.0000 C   0  0  0  0  0  0  0  0  0  0  0  0
    3.0482    3.4774    0.0000 C   0  0  0  0  0  0  0  0  0  0  0  0
    4.0519    2.3627    0.0000 F   0  0  0  0  0  0  0  0  0  0  0  0
    3.5118    4.9040    0.0000 C   0  0  0  0  0  0  0  0  0  0  0  0
    2.5081    6.0187    0.0000 C   0  0  0  0  0  0  0  0  0  0  0  0
    1.0409    5.7068    0.0000 C   0  0  0  0  0  0  0  0  0  0  0  0
    0.0372    6.8216    0.0000 O   0  0  0  0  0  0  0  0  0  0  0  0
    0.5007    8.2481    0.0000 C   0  0  0  0  0  0  0  0  0  0  0  0
   -0.5030    9.3629    0.0000 C   0  0  0  0  0  0  0  0  0  0  0  0
   -0.0395   10.7895    0.0000 F   0  0  0  0  0  0  0  0  0  0  0  0
   -1.9702    9.0510    0.0000 F   0  0  0  0  0  0  0  0  0  0  0  0
   -1.5000    0.0000    0.0000 N   0  0  0  0  0  0  0  0  0  0  0  0
   -0.7500   -1.2990    0.0000 C   0  0  0  0  0  0  0  0  0  0  0  0
   -3.8536   -2.3075    0.0000 C   0  0  0  0  0  0  0  0  0  0  0  0
   -5.0672   -3.1891    0.0000 N   0  0  0  0  0  0  0  0  0  0  0  0
  1  2  1  0
  2  3  1  0
  3  4  2  0
  4  5  1  0
  5  6  1  0
  6  7  2  0
  7  8  1  0
  8  9  1  0
  9 10  2  0
 10 11  1  0
 11 12  1  0
 12 13  1  0
 13 14  1  0
 14 15  1  0
 15 16  1  0
 16 17  1  6
 17 18  2  0
 18 19  1  0
 19 20  1  0
 19 21  2  0
 21 22  1  0
 22 23  2  0
 23 24  1  0
 24 25  1  0
 25 26  1  0
 26 27  1  0
 26 28  1  0
 11 29  2  0
 29 30  1  0
  4 31  1  0
 31 32  2  0
 32  2  1  0
 30  5  2  0
 30  8  1  0
 16 12  1  0
 23 17  1  0
M  END
>  <Compound_ID>  (393) 
CHEMBL5092943

>  <Molecule Name>  (393) 
nan

>  <Molecular Weight>  (393) 
442.45

>  <AlogP>  (393) 
4.25

>  <Smiles>  (393) 
Cn1cc(-c2cnn3ccc(N4CCC[C@@H]4c4cc(F)ccc4OCC(F)F)nc23)cn1

>  <Standard Type>  (393) 
IC50

>  <Standard Relation>  (393) 
'='

>  <Standard Units>  (393) 
nM

>  <Standard Value>  (393) 
0.2

>  <Assay ChEMBL ID>  (393) 
CHEMBL5035649

>  <Assay Description>  (393) 
Inhibition of TRKA GS95R mutant (unknown origin) preincubated for 30 mins followed by biotinylated TK-peptide substrate addition and measured after 40 mins by FRET-based Z-lyte kinase assay

>  <BAO Format ID>  (393) 
BAO_0000357

>  <BAO Label>  (393) 
single protein format

>  <Assay Organism>  (393) 
Homo sapiens

>  <Target ChEMBL ID>  (393) 
CHEMBL2815

>  <Target Name>  (393) 
Nerve growth factor receptor Trk-A

>  <Target Organism>  (393) 
Homo sapiens

>  <Target Type>  (393) 
SINGLE PROTEIN

>  <Document ChEMBL ID>  (393) 
CHEMBL5034031

>  <Source Description>  (393) 
Scientific Literature

>  <Document Journal>  (393) 
J Med Chem

>  <Document Year>  (393) 
2021.0

>  <Active>  (393) 
1.0

>  <bits>  (393) 
<rdkit.DataStructs.cDataStructs.ExplicitBitVect object at 0x00000159F78D2500>

>  <Group>  (393) 
G2

$$$$

     RDKit          2D

 38 41  0  0  0  0  0  0  0  0999 V2000
   -2.1766   -4.6157    0.0000 C   0  0  0  0  0  0  0  0  0  0  0  0
   -2.6401   -3.1891    0.0000 C   0  0  0  0  0  0  0  0  0  0  0  0
   -3.1036   -1.7626    0.0000 C   0  0  0  0  0  0  0  0  0  0  0  0
   -4.5709   -1.4507    0.0000 O   0  0  0  0  0  0  0  0  0  0  0  0
   -4.0667   -3.6527    0.0000 C   0  0  0  0  0  0  0  0  0  0  0  0
   -5.1814   -2.6490    0.0000 O   0  0  0  0  0  0  0  0  0  0  0  0
   -1.2135   -2.7256    0.0000 N   0  0  0  0  0  0  0  0  0  0  0  0
   -0.0000   -3.6073    0.0000 C   0  0  0  0  0  0  0  0  0  0  0  0
    1.2135   -2.7256    0.0000 C   0  0  0  0  0  0  0  0  0  0  0  0
    2.6401   -3.1891    0.0000 C   0  0  0  0  0  0  0  0  0  0  0  0
    3.7548   -2.1855    0.0000 O   0  0  0  0  0  0  0  0  0  0  0  0
    2.9520   -4.6564    0.0000 C   0  0  0  0  0  0  0  0  0  0  0  0
    1.8373   -5.6601    0.0000 C   0  0  0  0  0  0  0  0  0  0  0  0
    2.1491   -7.1273    0.0000 N   0  0  0  0  0  0  0  0  0  0  0  0
    3.5757   -7.5908    0.0000 C   0  0  0  0  0  0  0  0  0  0  0  0
    4.6904   -6.5871    0.0000 C   0  0  0  0  0  0  0  0  0  0  0  0
    6.1170   -7.0506    0.0000 N   0  0  0  0  0  0  0  0  0  0  0  0
    6.4289   -8.5179    0.0000 C   0  0  0  0  0  0  0  0  0  0  0  0
    5.3142   -9.5216    0.0000 O   0  0  0  0  0  0  0  0  0  0  0  0
    7.8555   -8.9814    0.0000 C   0  0  0  0  0  0  0  0  0  0  0  0
    8.1673  -10.4486    0.0000 C   0  0  0  0  0  0  0  0  0  0  0  0
    7.0526  -11.4523    0.0000 C   0  0  0  0  0  0  0  0  0  0  0  0
    7.3645  -12.9195    0.0000 C   0  0  0  0  0  0  0  0  0  0  0  0
    8.7911  -13.3831    0.0000 C   0  0  0  0  0  0  0  0  0  0  0  0
    9.1029  -14.8503    0.0000 F   0  0  0  0  0  0  0  0  0  0  0  0
    9.9058  -12.3794    0.0000 C   0  0  0  0  0  0  0  0  0  0  0  0
   11.3324  -12.8429    0.0000 C   0  0  0  0  0  0  0  0  0  0  0  0
   12.7590  -13.3064    0.0000 F   0  0  0  0  0  0  0  0  0  0  0  0
   11.7959  -11.4163    0.0000 F   0  0  0  0  0  0  0  0  0  0  0  0
   10.8688  -14.2695    0.0000 F   0  0  0  0  0  0  0  0  0  0  0  0
    9.5939  -10.9121    0.0000 C   0  0  0  0  0  0  0  0  0  0  0  0
    4.3786   -5.1199    0.0000 C   0  0  0  0  0  0  0  0  0  0  0  0
    0.7500   -1.2990    0.0000 C   0  0  0  0  0  0  0  0  0  0  0  0
    1.5000    0.0000    0.0000 C   0  0  0  0  0  0  0  0  0  0  0  0
    0.7500    1.2990    0.0000 N   0  0  0  0  0  0  0  0  0  0  0  0
   -0.7500    1.2990    0.0000 C   0  0  0  0  0  0  0  0  0  0  0  0
   -1.5000    0.0000    0.0000 N   0  0  0  0  0  0  0  0  0  0  0  0
   -0.7500   -1.2990    0.0000 C   0  0  0  0  0  0  0  0  0  0  0  0
  1  2  1  0
  2  3  1  0
  3  4  1  0
  2  5  1  0
  5  6  1  0
  2  7  1  0
  7  8  1  0
  8  9  2  0
  9 10  1  0
 10 11  2  0
 10 12  1  0
 12 13  2  0
 13 14  1  0
 14 15  2  0
 15 16  1  0
 16 17  1  0
 17 18  1  0
 18 19  2  0
 18 20  1  0
 20 21  1  0
 21 22  2  0
 22 23  1  0
 23 24  2  0
 24 25  1  0
 24 26  1  0
 26 27  1  0
 27 28  1  0
 27 29  1  0
 27 30  1  0
 26 31  2  0
 16 32  2  0
  9 33  1  0
 33 34  2  0
 34 35  1  0
 35 36  2  0
 36 37  1  0
 37 38  2  0
 38  7  1  0
 32 12  1  0
 38 33  1  0
 31 21  1  0
M  END
>  <Compound_ID>  (394) 
CHEMBL3666264

>  <Molecule Name>  (394) 
nan

>  <Molecular Weight>  (394) 
531.47

>  <AlogP>  (394) 
3.1

>  <Smiles>  (394) 
CC(CO)(CO)n1cc(C(=O)c2cncc(NC(=O)Cc3ccc(F)c(C(F)(F)F)c3)c2)c2cncnc21

>  <Standard Type>  (394) 
IC50

>  <Standard Relation>  (394) 
'='

>  <Standard Units>  (394) 
nM

>  <Standard Value>  (394) 
73.6

>  <Assay ChEMBL ID>  (394) 
CHEMBL3887033

>  <Assay Description>  (394) 
Enzyme Assay: Isolated TRK Enzyme assays use the HTRF KinEASE-TK kit (Cisbio Cat# 62TK0PEJ) with recombinant His-tagged cytoplasmic domains of each TRK receptor sourced from Invitrogen (see table below). This activity-assay measures the phosphorylation of tyrosine residues within a substrate from the HTRF kit which has been validated by Cisbio for a variety of tyrosine kinases including the TRK receptors. Assay details: Target:TRKA; Invitrogen Cat# PV3144; Amino acids:aa 441-796; FAC enzyme:4nM; FAC ATP:40uM; Assay Reaction Time:35min.

>  <BAO Format ID>  (394) 
BAO_0000357

>  <BAO Label>  (394) 
single protein format

>  <Assay Organism>  (394) 
None

>  <Target ChEMBL ID>  (394) 
CHEMBL2815

>  <Target Name>  (394) 
Nerve growth factor receptor Trk-A

>  <Target Organism>  (394) 
Homo sapiens

>  <Target Type>  (394) 
SINGLE PROTEIN

>  <Document ChEMBL ID>  (394) 
CHEMBL3639348

>  <Source Description>  (394) 
BindingDB Database

>  <Document Journal>  (394) 
nan

>  <Document Year>  (394) 
2014.0

>  <Active>  (394) 
1.0

>  <bits>  (394) 
<rdkit.DataStructs.cDataStructs.ExplicitBitVect object at 0x00000159F78D1770>

>  <Group>  (394) 
G2

$$$$

     RDKit          2D

 35 39  0  0  0  0  0  0  0  0999 V2000
  -10.9341    7.7749    0.0000 C   0  0  0  0  0  0  0  0  0  0  0  0
  -11.2460    6.3076    0.0000 O   0  0  0  0  0  0  0  0  0  0  0  0
  -10.1313    5.3039    0.0000 C   0  0  0  0  0  0  0  0  0  0  0  0
   -8.7047    5.7675    0.0000 C   0  0  0  0  0  0  0  0  0  0  0  0
   -7.5900    4.7638    0.0000 C   0  0  0  0  0  0  0  0  0  0  0  0
   -7.9018    3.2966    0.0000 C   0  0  0  0  0  0  0  0  0  0  0  0
   -6.7871    2.2929    0.0000 C   0  0  0  0  0  0  0  0  0  0  0  0
   -7.0990    0.8256    0.0000 O   0  0  0  0  0  0  0  0  0  0  0  0
   -5.9843   -0.1781    0.0000 C   0  0  0  0  0  0  0  0  0  0  0  0
   -6.2961   -1.6453    0.0000 C   0  0  0  0  0  0  0  0  0  0  0  0
   -5.1814   -2.6490    0.0000 C   0  0  0  0  0  0  0  0  0  0  0  0
   -3.7548   -2.1855    0.0000 C   0  0  0  0  0  0  0  0  0  0  0  0
   -2.6401   -3.1891    0.0000 C   0  0  0  0  0  0  0  0  0  0  0  0
   -1.2135   -2.7256    0.0000 N   0  0  0  0  0  0  0  0  0  0  0  0
   -0.0000   -3.6073    0.0000 C   0  0  0  0  0  0  0  0  0  0  0  0
    0.0000   -5.1073    0.0000 N   0  0  0  0  0  0  0  0  0  0  0  0
    1.2135   -2.7256    0.0000 N   0  0  0  0  0  0  0  0  0  0  0  0
    0.7500   -1.2990    0.0000 C   0  0  0  0  0  0  0  0  0  0  0  0
    1.5000    0.0000    0.0000 C   0  0  0  0  0  0  0  0  0  0  0  0
    0.7500    1.2990    0.0000 C   0  0  0  0  0  0  0  0  0  0  0  0
    1.5000    2.5981    0.0000 C   0  0  0  0  0  0  0  0  0  0  0  0
    3.0000    2.5981    0.0000 C   0  0  0  0  0  0  0  0  0  0  0  0
    3.7500    3.8971    0.0000 N   0  0  0  0  0  0  0  0  0  0  0  0
    3.0000    5.1962    0.0000 C   0  0  0  0  0  0  0  0  0  0  0  0
    1.5000    5.1962    0.0000 N   0  0  0  0  0  0  0  0  0  0  0  0
    0.7500    3.8971    0.0000 C   0  0  0  0  0  0  0  0  0  0  0  0
   -0.7500    1.2990    0.0000 C   0  0  0  0  0  0  0  0  0  0  0  0
   -1.5000    0.0000    0.0000 C   0  0  0  0  0  0  0  0  0  0  0  0
   -0.7500   -1.2990    0.0000 C   0  0  0  0  0  0  0  0  0  0  0  0
   -3.4430   -0.7182    0.0000 C   0  0  0  0  0  0  0  0  0  0  0  0
   -4.5577    0.2855    0.0000 C   0  0  0  0  0  0  0  0  0  0  0  0
   -4.2458    1.7527    0.0000 O   0  0  0  0  0  0  0  0  0  0  0  0
   -5.3605    2.7564    0.0000 C   0  0  0  0  0  0  0  0  0  0  0  0
   -9.3284    2.8330    0.0000 C   0  0  0  0  0  0  0  0  0  0  0  0
  -10.4431    3.8367    0.0000 C   0  0  0  0  0  0  0  0  0  0  0  0
  1  2  1  0
  2  3  1  0
  3  4  2  0
  4  5  1  0
  5  6  2  0
  6  7  1  0
  7  8  1  0
  8  9  1  0
  9 10  2  0
 10 11  1  0
 11 12  2  0
 12 13  1  0
 13 14  1  0
 14 15  1  0
 15 16  1  0
 15 17  2  0
 17 18  1  0
 18 19  2  0
 19 20  1  0
 20 21  1  0
 21 22  2  0
 22 23  1  0
 23 24  2  0
 24 25  1  0
 25 26  2  0
 20 27  2  0
 27 28  1  0
 28 29  2  0
 12 30  1  0
 30 31  2  0
 31 32  1  0
 32 33  1  0
  6 34  1  0
 34 35  2  0
 35  3  1  0
 31  9  1  0
 29 14  1  0
 29 18  1  0
 26 21  1  0
M  END
>  <Compound_ID>  (395) 
CHEMBL3673437

>  <Molecule Name>  (395) 
nan

>  <Molecular Weight>  (395) 
467.53

>  <AlogP>  (395) 
4.72

>  <Smiles>  (395) 
COc1ccc(COc2ccc(Cn3c(N)nc4cc(-c5cncnc5)ccc43)cc2OC)cc1

>  <Standard Type>  (395) 
IC50

>  <Standard Relation>  (395) 
'='

>  <Standard Units>  (395) 
nM

>  <Standard Value>  (395) 
86.0

>  <Assay ChEMBL ID>  (395) 
CHEMBL3887112

>  <Assay Description>  (395) 
Inhibition Assay: Reagents and consumables were purchased from Sigma Aldrich, Carna Biosciences, or Caliper Life Sciences. All assay reaction conditions for IC50 determinations were within the linear range with respect to time and enzyme concentration. In a 384 well polypropylene plate, TrkA (0.4 nM, Carna 08-186) was pre-incubated in a 100 mM Hepes-NaOH pH 7.5 buffer containing 0.01% Triton X-100, 10 mM MgCl2, 0.1% BSA, 1 mM DTT, 10 uM sodium orthovanadate and 10 uM beta-glycerophosphate and compound with a concentration of 2.5% DMSO for 15 minutes at room temperature. The reaction was initiated with an equal volume of peptide substrate (Caliper Life Sciences catalog no. 760430) and ATP in the aforementioned buffer. The final concentrations in the reaction were 200 pM TrkA, 1.5 uM peptide substrate and 55 uM ATP (ATP Km). The reaction was incubated at room temperature for 180 minutes and terminated with a buffer containing excess EDTA (100 mM Hepes-NaOH pH 7.5, 0.02% Brij.

>  <BAO Format ID>  (395) 
BAO_0000357

>  <BAO Label>  (395) 
single protein format

>  <Assay Organism>  (395) 
None

>  <Target ChEMBL ID>  (395) 
CHEMBL2815

>  <Target Name>  (395) 
Nerve growth factor receptor Trk-A

>  <Target Organism>  (395) 
Homo sapiens

>  <Target Type>  (395) 
SINGLE PROTEIN

>  <Document ChEMBL ID>  (395) 
CHEMBL3638818

>  <Source Description>  (395) 
BindingDB Database

>  <Document Journal>  (395) 
nan

>  <Document Year>  (395) 
2015.0

>  <Active>  (395) 
1.0

>  <bits>  (395) 
<rdkit.DataStructs.cDataStructs.ExplicitBitVect object at 0x00000159F78D1EE0>

>  <Group>  (395) 
G2

$$$$

     RDKit          2D

 35 39  0  0  0  0  0  0  0  0999 V2000
   -2.9520   -4.6564    0.0000 C   0  0  0  0  0  0  0  0  0  0  0  0
   -2.6401   -3.1891    0.0000 C   0  0  0  0  0  0  0  0  0  0  0  0
   -3.7548   -2.1855    0.0000 C   0  0  0  0  0  0  0  0  0  0  0  0
   -1.2135   -2.7256    0.0000 N   0  0  0  0  0  0  0  0  0  0  0  0
   -0.0000   -3.6073    0.0000 C   0  0  0  0  0  0  0  0  0  0  0  0
    1.2135   -2.7256    0.0000 C   0  0  0  0  0  0  0  0  0  0  0  0
    2.6401   -3.1891    0.0000 C   0  0  0  0  0  0  0  0  0  0  0  0
    3.7548   -2.1855    0.0000 O   0  0  0  0  0  0  0  0  0  0  0  0
    2.9520   -4.6564    0.0000 C   0  0  0  0  0  0  0  0  0  0  0  0
    1.8373   -5.6601    0.0000 C   0  0  0  0  0  0  0  0  0  0  0  0
    2.1491   -7.1273    0.0000 N   0  0  0  0  0  0  0  0  0  0  0  0
    3.5757   -7.5908    0.0000 C   0  0  0  0  0  0  0  0  0  0  0  0
    4.6904   -6.5871    0.0000 C   0  0  0  0  0  0  0  0  0  0  0  0
    6.1170   -7.0506    0.0000 N   0  0  0  0  0  0  0  0  0  0  0  0
    6.4289   -8.5179    0.0000 C   0  0  0  0  0  0  0  0  0  0  0  0
    5.3142   -9.5216    0.0000 O   0  0  0  0  0  0  0  0  0  0  0  0
    7.8555   -8.9814    0.0000 C   0  0  0  0  0  0  0  0  0  0  0  0
    8.1673  -10.4486    0.0000 C   0  0  0  0  0  0  0  0  0  0  0  0
    7.1636  -11.5633    0.0000 N   0  0  0  0  0  0  0  0  0  0  0  0
    7.9136  -12.8624    0.0000 N   0  0  0  0  0  0  0  0  0  0  0  0
    7.3035  -14.2327    0.0000 C   0  0  0  0  0  0  0  0  0  0  0  0
    9.3809  -12.5505    0.0000 C   0  0  0  0  0  0  0  0  0  0  0  0
   10.5944  -13.4322    0.0000 C   0  0  0  0  0  0  0  0  0  0  0  0
   11.9647  -12.8221    0.0000 C   0  0  0  0  0  0  0  0  0  0  0  0
   13.1782  -13.7037    0.0000 Cl  0  0  0  0  0  0  0  0  0  0  0  0
   12.1215  -11.3303    0.0000 C   0  0  0  0  0  0  0  0  0  0  0  0
   10.9080  -10.4486    0.0000 C   0  0  0  0  0  0  0  0  0  0  0  0
    9.5377  -11.0587    0.0000 C   0  0  0  0  0  0  0  0  0  0  0  0
    4.3786   -5.1199    0.0000 C   0  0  0  0  0  0  0  0  0  0  0  0
    0.7500   -1.2990    0.0000 C   0  0  0  0  0  0  0  0  0  0  0  0
    1.5000    0.0000    0.0000 C   0  0  0  0  0  0  0  0  0  0  0  0
    0.7500    1.2990    0.0000 N   0  0  0  0  0  0  0  0  0  0  0  0
   -0.7500    1.2990    0.0000 C   0  0  0  0  0  0  0  0  0  0  0  0
   -1.5000    0.0000    0.0000 N   0  0  0  0  0  0  0  0  0  0  0  0
   -0.7500   -1.2990    0.0000 C   0  0  0  0  0  0  0  0  0  0  0  0
  1  2  1  0
  2  3  1  0
  2  4  1  0
  4  5  1  0
  5  6  2  0
  6  7  1  0
  7  8  2  0
  7  9  1  0
  9 10  2  0
 10 11  1  0
 11 12  2  0
 12 13  1  0
 13 14  1  0
 14 15  1  0
 15 16  2  0
 15 17  1  0
 17 18  1  0
 18 19  2  0
 19 20  1  0
 20 21  1  0
 20 22  1  0
 22 23  2  0
 23 24  1  0
 24 25  1  0
 24 26  2  0
 26 27  1  0
 27 28  2  0
 13 29  2  0
  6 30  1  0
 30 31  2  0
 31 32  1  0
 32 33  2  0
 33 34  1  0
 34 35  2  0
 35  4  1  0
 29  9  1  0
 35 30  1  0
 28 18  1  0
 28 22  1  0
M  END
>  <Compound_ID>  (396) 
CHEMBL3661541

>  <Molecule Name>  (396) 
nan

>  <Molecular Weight>  (396) 
487.95

>  <AlogP>  (396) 
4.36

>  <Smiles>  (396) 
CC(C)n1cc(C(=O)c2cncc(NC(=O)Cc3nn(C)c4cc(Cl)ccc34)c2)c2cncnc21

>  <Standard Type>  (396) 
IC50

>  <Standard Relation>  (396) 
'='

>  <Standard Units>  (396) 
nM

>  <Standard Value>  (396) 
76.4

>  <Assay ChEMBL ID>  (396) 
CHEMBL3887033

>  <Assay Description>  (396) 
Enzyme Assay: Isolated TRK Enzyme assays use the HTRF KinEASE-TK kit (Cisbio Cat# 62TK0PEJ) with recombinant His-tagged cytoplasmic domains of each TRK receptor sourced from Invitrogen (see table below). This activity-assay measures the phosphorylation of tyrosine residues within a substrate from the HTRF kit which has been validated by Cisbio for a variety of tyrosine kinases including the TRK receptors. Assay details: Target:TRKA; Invitrogen Cat# PV3144; Amino acids:aa 441-796; FAC enzyme:4nM; FAC ATP:40uM; Assay Reaction Time:35min.

>  <BAO Format ID>  (396) 
BAO_0000357

>  <BAO Label>  (396) 
single protein format

>  <Assay Organism>  (396) 
None

>  <Target ChEMBL ID>  (396) 
CHEMBL2815

>  <Target Name>  (396) 
Nerve growth factor receptor Trk-A

>  <Target Organism>  (396) 
Homo sapiens

>  <Target Type>  (396) 
SINGLE PROTEIN

>  <Document ChEMBL ID>  (396) 
CHEMBL3639348

>  <Source Description>  (396) 
BindingDB Database

>  <Document Journal>  (396) 
nan

>  <Document Year>  (396) 
2014.0

>  <Active>  (396) 
1.0

>  <bits>  (396) 
<rdkit.DataStructs.cDataStructs.ExplicitBitVect object at 0x00000159F78D1AF0>

>  <Group>  (396) 
G2

$$$$

     RDKit          2D

 37 40  0  0  0  0  0  0  0  0999 V2000
   -2.1766   -4.6157    0.0000 C   0  0  0  0  0  0  0  0  0  0  0  0
   -2.6401   -3.1891    0.0000 C   0  0  0  0  0  0  0  0  0  0  0  0
   -3.1036   -1.7626    0.0000 C   0  0  0  0  0  0  0  0  0  0  0  0
   -4.0667   -3.6527    0.0000 C   0  0  0  0  0  0  0  0  0  0  0  0
   -5.1814   -2.6490    0.0000 O   0  0  0  0  0  0  0  0  0  0  0  0
   -1.2135   -2.7256    0.0000 N   0  0  0  0  0  0  0  0  0  0  0  0
   -0.0000   -3.6073    0.0000 C   0  0  0  0  0  0  0  0  0  0  0  0
    1.2135   -2.7256    0.0000 C   0  0  0  0  0  0  0  0  0  0  0  0
    2.6401   -3.1891    0.0000 C   0  0  0  0  0  0  0  0  0  0  0  0
    3.7548   -2.1855    0.0000 O   0  0  0  0  0  0  0  0  0  0  0  0
    2.9520   -4.6564    0.0000 C   0  0  0  0  0  0  0  0  0  0  0  0
    1.8373   -5.6601    0.0000 C   0  0  0  0  0  0  0  0  0  0  0  0
    2.1491   -7.1273    0.0000 N   0  0  0  0  0  0  0  0  0  0  0  0
    3.5757   -7.5908    0.0000 C   0  0  0  0  0  0  0  0  0  0  0  0
    4.6904   -6.5871    0.0000 C   0  0  0  0  0  0  0  0  0  0  0  0
    6.1170   -7.0506    0.0000 N   0  0  0  0  0  0  0  0  0  0  0  0
    6.4289   -8.5179    0.0000 C   0  0  0  0  0  0  0  0  0  0  0  0
    5.3142   -9.5216    0.0000 O   0  0  0  0  0  0  0  0  0  0  0  0
    7.8555   -8.9814    0.0000 C   0  0  0  0  0  0  0  0  0  0  0  0
    8.1673  -10.4486    0.0000 C   0  0  0  0  0  0  0  0  0  0  0  0
    7.0526  -11.4523    0.0000 C   0  0  0  0  0  0  0  0  0  0  0  0
    7.3645  -12.9195    0.0000 C   0  0  0  0  0  0  0  0  0  0  0  0
    8.7911  -13.3831    0.0000 C   0  0  0  0  0  0  0  0  0  0  0  0
    9.9058  -12.3794    0.0000 C   0  0  0  0  0  0  0  0  0  0  0  0
   11.3324  -12.8429    0.0000 S   0  0  0  0  0  0  0  0  0  0  0  0
   12.7590  -13.3064    0.0000 C   0  0  0  0  0  0  0  0  0  0  0  0
   11.7959  -11.4163    0.0000 O   0  0  0  0  0  0  0  0  0  0  0  0
   10.8688  -14.2695    0.0000 O   0  0  0  0  0  0  0  0  0  0  0  0
    9.5939  -10.9121    0.0000 C   0  0  0  0  0  0  0  0  0  0  0  0
    4.3786   -5.1199    0.0000 C   0  0  0  0  0  0  0  0  0  0  0  0
    0.7500   -1.2990    0.0000 C   0  0  0  0  0  0  0  0  0  0  0  0
    1.5000    0.0000    0.0000 C   0  0  0  0  0  0  0  0  0  0  0  0
    0.7500    1.2990    0.0000 N   0  0  0  0  0  0  0  0  0  0  0  0
   -0.7500    1.2990    0.0000 C   0  0  0  0  0  0  0  0  0  0  0  0
   -1.5000    2.5981    0.0000 N   0  0  0  0  0  0  0  0  0  0  0  0
   -1.5000    0.0000    0.0000 N   0  0  0  0  0  0  0  0  0  0  0  0
   -0.7500   -1.2990    0.0000 C   0  0  0  0  0  0  0  0  0  0  0  0
  1  2  1  0
  2  3  1  0
  2  4  1  0
  4  5  1  0
  2  6  1  0
  6  7  1  0
  7  8  2  0
  8  9  1  0
  9 10  2  0
  9 11  1  0
 11 12  2  0
 12 13  1  0
 13 14  2  0
 14 15  1  0
 15 16  1  0
 16 17  1  0
 17 18  2  0
 17 19  1  0
 19 20  1  0
 20 21  2  0
 21 22  1  0
 22 23  2  0
 23 24  1  0
 24 25  1  0
 25 26  1  0
 25 27  2  0
 25 28  2  0
 24 29  2  0
 15 30  2  0
  8 31  1  0
 31 32  2  0
 32 33  1  0
 33 34  2  0
 34 35  1  0
 34 36  1  0
 36 37  2  0
 37  6  1  0
 30 11  1  0
 37 31  1  0
 29 20  1  0
M  END
>  <Compound_ID>  (397) 
CHEMBL3666261

>  <Molecule Name>  (397) 
nan

>  <Molecular Weight>  (397) 
522.59

>  <AlogP>  (397) 
1.95

>  <Smiles>  (397) 
CC(C)(CO)n1cc(C(=O)c2cncc(NC(=O)Cc3cccc(S(C)(=O)=O)c3)c2)c2cnc(N)nc21

>  <Standard Type>  (397) 
IC50

>  <Standard Relation>  (397) 
'='

>  <Standard Units>  (397) 
nM

>  <Standard Value>  (397) 
11.8

>  <Assay ChEMBL ID>  (397) 
CHEMBL3887033

>  <Assay Description>  (397) 
Enzyme Assay: Isolated TRK Enzyme assays use the HTRF KinEASE-TK kit (Cisbio Cat# 62TK0PEJ) with recombinant His-tagged cytoplasmic domains of each TRK receptor sourced from Invitrogen (see table below). This activity-assay measures the phosphorylation of tyrosine residues within a substrate from the HTRF kit which has been validated by Cisbio for a variety of tyrosine kinases including the TRK receptors. Assay details: Target:TRKA; Invitrogen Cat# PV3144; Amino acids:aa 441-796; FAC enzyme:4nM; FAC ATP:40uM; Assay Reaction Time:35min.

>  <BAO Format ID>  (397) 
BAO_0000357

>  <BAO Label>  (397) 
single protein format

>  <Assay Organism>  (397) 
None

>  <Target ChEMBL ID>  (397) 
CHEMBL2815

>  <Target Name>  (397) 
Nerve growth factor receptor Trk-A

>  <Target Organism>  (397) 
Homo sapiens

>  <Target Type>  (397) 
SINGLE PROTEIN

>  <Document ChEMBL ID>  (397) 
CHEMBL3639348

>  <Source Description>  (397) 
BindingDB Database

>  <Document Journal>  (397) 
nan

>  <Document Year>  (397) 
2014.0

>  <Active>  (397) 
1.0

>  <bits>  (397) 
<rdkit.DataStructs.cDataStructs.ExplicitBitVect object at 0x00000159F78D18C0>

>  <Group>  (397) 
G2

$$$$

     RDKit          2D

 29 33  0  0  0  0  0  0  0  0999 V2000
   -3.7548   -2.1855    0.0000 O   0  0  0  0  0  0  0  0  0  0  0  0
   -2.6401   -3.1891    0.0000 C   0  0  0  0  0  0  0  0  0  0  0  0
   -1.2135   -2.7256    0.0000 C   0  0  0  0  0  0  0  0  0  0  0  0
   -0.0000   -3.6073    0.0000 C   0  0  0  0  0  0  0  0  0  0  0  0
    1.2135   -2.7256    0.0000 N   0  0  0  0  0  0  0  0  0  0  0  0
    0.7500   -1.2990    0.0000 N   0  0  0  0  0  0  0  0  0  0  0  0
    1.5000    0.0000    0.0000 C   0  0  0  0  0  0  0  0  0  0  0  0
    0.7500    1.2990    0.0000 C   0  0  0  0  0  0  0  0  0  0  0  0
   -0.7500    1.2990    0.0000 C   0  0  0  0  0  0  0  0  0  0  0  0
   -1.5000    2.5981    0.0000 N   0  0  0  0  0  0  0  0  0  0  0  0
   -2.9918    2.7549    0.0000 C   0  0  0  0  0  0  0  0  0  0  0  0
   -3.3037    4.2221    0.0000 C   0  0  0  0  0  0  0  0  0  0  0  0
   -2.0046    4.9721    0.0000 C   0  0  0  0  0  0  0  0  0  0  0  0
   -0.8899    3.9684    0.0000 C   0  0  0  0  0  0  0  0  0  0  0  0
    0.5773    4.2803    0.0000 C   0  0  0  0  0  0  0  0  0  0  0  0
    1.5810    3.1655    0.0000 C   0  0  0  0  0  0  0  0  0  0  0  0
    3.0482    3.4774    0.0000 C   0  0  0  0  0  0  0  0  0  0  0  0
    4.0519    2.3627    0.0000 F   0  0  0  0  0  0  0  0  0  0  0  0
    3.5118    4.9040    0.0000 C   0  0  0  0  0  0  0  0  0  0  0  0
    2.5081    6.0187    0.0000 C   0  0  0  0  0  0  0  0  0  0  0  0
    1.0409    5.7068    0.0000 C   0  0  0  0  0  0  0  0  0  0  0  0
    0.0372    6.8216    0.0000 F   0  0  0  0  0  0  0  0  0  0  0  0
   -1.5000    0.0000    0.0000 N   0  0  0  0  0  0  0  0  0  0  0  0
   -0.7500   -1.2990    0.0000 C   0  0  0  0  0  0  0  0  0  0  0  0
   -2.9520   -4.6564    0.0000 N   0  0  0  0  0  0  0  0  0  0  0  0
   -4.2100   -5.4733    0.0000 C   0  0  0  0  0  0  0  0  0  0  0  0
   -3.3930   -6.7313    0.0000 C   0  0  0  0  0  0  0  0  0  0  0  0
   -3.7049   -8.1986    0.0000 O   0  0  0  0  0  0  0  0  0  0  0  0
   -2.1350   -5.9144    0.0000 C   0  0  0  0  0  0  0  0  0  0  0  0
  1  2  2  0
  2  3  1  0
  3  4  1  0
  4  5  2  0
  5  6  1  0
  6  7  1  0
  7  8  2  0
  8  9  1  0
  9 10  1  0
 10 11  1  0
 11 12  1  0
 12 13  1  0
 13 14  1  0
 14 15  1  6
 15 16  2  0
 16 17  1  0
 17 18  1  0
 17 19  2  0
 19 20  1  0
 20 21  2  0
 21 22  1  0
  9 23  2  0
 23 24  1  0
  2 25  1  0
 25 26  1  0
 26 27  1  0
 27 28  1  0
 27 29  1  0
 24  3  2  0
 29 25  1  0
 24  6  1  0
 14 10  1  0
 21 15  1  0
M  END
>  <Compound_ID>  (398) 
CHEMBL3675909

>  <Molecule Name>  (398) 
nan

>  <Molecular Weight>  (398) 
399.4

>  <AlogP>  (398) 
2.17

>  <Smiles>  (398) 
O=C(c1cnn2ccc(N3CCC[C@@H]3c3cc(F)ccc3F)nc12)N1CC(O)C1

>  <Standard Type>  (398) 
IC50

>  <Standard Relation>  (398) 
'='

>  <Standard Units>  (398) 
nM

>  <Standard Value>  (398) 
10.6

>  <Assay ChEMBL ID>  (398) 
CHEMBL3887070

>  <Assay Description>  (398) 
ELISA Assay: An enzyme-linked immunosorbant assay (ELISA) was used to assess TrkA kinase activity in the presence of inhibitors. Immulon 4HBX 384-well microtiter plates (Thermo part #8755) were coated with a 0.025 mg/mL solution of poly (Glu, Ala, Tyr; 6:3:1; Sigma P3899). Various concentrations of test compound, 2.5 nM TrkA (Invitrogen Corp., histidine-tagged recombinant human TrkA, cytoplasmic domain), and 500 uM ATP were incubated for 25 minutes at ambient temperature in the coated plates while shaking The assay buffer consisted of 25 mM MOPS pH 7.5, 0.005% (v/v) Triton X-100 and 5 mM MgCl2. The reaction mixture was removed from the plate by washing with PBS containing 0.1% (v/v) Tween 20. The phosphorylated reaction product was detected using 0.2 ug/mL of a phosphotyrosine specific monoclonal antibody (clone PY20) conjugated to horseradish peroxidase in conjunction with the TMB Peroxidase Substrate System (KPL).

>  <BAO Format ID>  (398) 
BAO_0000357

>  <BAO Label>  (398) 
single protein format

>  <Assay Organism>  (398) 
None

>  <Target ChEMBL ID>  (398) 
CHEMBL2815

>  <Target Name>  (398) 
Nerve growth factor receptor Trk-A

>  <Target Organism>  (398) 
Homo sapiens

>  <Target Type>  (398) 
SINGLE PROTEIN

>  <Document ChEMBL ID>  (398) 
CHEMBL3638907

>  <Source Description>  (398) 
BindingDB Database

>  <Document Journal>  (398) 
nan

>  <Document Year>  (398) 
2014.0

>  <Active>  (398) 
1.0

>  <bits>  (398) 
<rdkit.DataStructs.cDataStructs.ExplicitBitVect object at 0x00000159F78D3140>

>  <Group>  (398) 
G2

$$$$

     RDKit          2D

 32 36  0  0  0  0  0  0  0  0999 V2000
    9.7877   -6.8555    0.0000 C   0  0  0  0  0  0  0  0  0  0  0  0
    9.3242   -5.4289    0.0000 O   0  0  0  0  0  0  0  0  0  0  0  0
    7.8570   -5.1171    0.0000 C   0  0  0  0  0  0  0  0  0  0  0  0
    7.3934   -3.6905    0.0000 C   0  0  0  0  0  0  0  0  0  0  0  0
    5.9262   -3.3786    0.0000 O   0  0  0  0  0  0  0  0  0  0  0  0
    5.4627   -1.9520    0.0000 C   0  0  0  0  0  0  0  0  0  0  0  0
    6.4664   -0.8373    0.0000 C   0  0  0  0  0  0  0  0  0  0  0  0
    6.0029    0.5893    0.0000 C   0  0  0  0  0  0  0  0  0  0  0  0
    4.5356    0.9012    0.0000 C   0  0  0  0  0  0  0  0  0  0  0  0
    4.0721    2.3277    0.0000 F   0  0  0  0  0  0  0  0  0  0  0  0
    3.5320   -0.2136    0.0000 C   0  0  0  0  0  0  0  0  0  0  0  0
    3.9955   -1.6402    0.0000 C   0  0  0  0  0  0  0  0  0  0  0  0
    2.9918   -2.7549    0.0000 C   0  0  0  0  0  0  0  0  0  0  0  0
    3.3037   -4.2221    0.0000 C   0  0  0  0  0  0  0  0  0  0  0  0
    2.0046   -4.9721    0.0000 C   0  0  0  0  0  0  0  0  0  0  0  0
    0.8899   -3.9684    0.0000 C   0  0  0  0  0  0  0  0  0  0  0  0
    1.5000   -2.5981    0.0000 N   0  0  0  0  0  0  0  0  0  0  0  0
    0.7500   -1.2990    0.0000 C   0  0  0  0  0  0  0  0  0  0  0  0
    1.5000    0.0000    0.0000 C   0  0  0  0  0  0  0  0  0  0  0  0
    0.7500    1.2990    0.0000 C   0  0  0  0  0  0  0  0  0  0  0  0
   -0.7500    1.2990    0.0000 N   0  0  0  0  0  0  0  0  0  0  0  0
   -1.7537    2.4138    0.0000 N   0  0  0  0  0  0  0  0  0  0  0  0
   -3.1240    1.8037    0.0000 C   0  0  0  0  0  0  0  0  0  0  0  0
   -2.9672    0.3119    0.0000 C   0  0  0  0  0  0  0  0  0  0  0  0
   -4.0819   -0.6918    0.0000 C   0  0  0  0  0  0  0  0  0  0  0  0
   -3.7701   -2.1590    0.0000 O   0  0  0  0  0  0  0  0  0  0  0  0
   -5.5085   -0.2283    0.0000 N   0  0  0  0  0  0  0  0  0  0  0  0
   -6.6232   -1.2320    0.0000 C   0  0  0  0  0  0  0  0  0  0  0  0
   -7.0868   -2.6586    0.0000 C   0  0  0  0  0  0  0  0  0  0  0  0
   -8.0905   -1.5439    0.0000 C   0  0  0  0  0  0  0  0  0  0  0  0
   -1.5000    0.0000    0.0000 C   0  0  0  0  0  0  0  0  0  0  0  0
   -0.7500   -1.2990    0.0000 N   0  0  0  0  0  0  0  0  0  0  0  0
  1  2  1  0
  2  3  1  0
  3  4  1  0
  4  5  1  0
  5  6  1  0
  6  7  2  0
  7  8  1  0
  8  9  2  0
  9 10  1  0
  9 11  1  0
 11 12  2  0
 13 12  1  1
 13 14  1  0
 14 15  1  0
 15 16  1  0
 16 17  1  0
 17 18  1  0
 18 19  1  0
 19 20  2  0
 20 21  1  0
 21 22  1  0
 22 23  2  0
 23 24  1  0
 24 25  1  0
 25 26  2  0
 25 27  1  0
 27 28  1  0
 28 29  1  0
 29 30  1  0
 24 31  2  0
 31 32  1  0
 12  6  1  0
 17 13  1  0
 32 18  2  0
 31 21  1  0
 30 28  1  0
M  END
>  <Compound_ID>  (399) 
CHEMBL3675965

>  <Molecule Name>  (399) 
nan

>  <Molecular Weight>  (399) 
439.49

>  <AlogP>  (399) 
3.13

>  <Smiles>  (399) 
COCCOc1ccc(F)cc1[C@H]1CCCN1c1ccn2ncc(C(=O)NC3CC3)c2n1

>  <Standard Type>  (399) 
IC50

>  <Standard Relation>  (399) 
'='

>  <Standard Units>  (399) 
nM

>  <Standard Value>  (399) 
0.95

>  <Assay ChEMBL ID>  (399) 
CHEMBL3887070

>  <Assay Description>  (399) 
ELISA Assay: An enzyme-linked immunosorbant assay (ELISA) was used to assess TrkA kinase activity in the presence of inhibitors. Immulon 4HBX 384-well microtiter plates (Thermo part #8755) were coated with a 0.025 mg/mL solution of poly (Glu, Ala, Tyr; 6:3:1; Sigma P3899). Various concentrations of test compound, 2.5 nM TrkA (Invitrogen Corp., histidine-tagged recombinant human TrkA, cytoplasmic domain), and 500 uM ATP were incubated for 25 minutes at ambient temperature in the coated plates while shaking The assay buffer consisted of 25 mM MOPS pH 7.5, 0.005% (v/v) Triton X-100 and 5 mM MgCl2. The reaction mixture was removed from the plate by washing with PBS containing 0.1% (v/v) Tween 20. The phosphorylated reaction product was detected using 0.2 ug/mL of a phosphotyrosine specific monoclonal antibody (clone PY20) conjugated to horseradish peroxidase in conjunction with the TMB Peroxidase Substrate System (KPL).

>  <BAO Format ID>  (399) 
BAO_0000357

>  <BAO Label>  (399) 
single protein format

>  <Assay Organism>  (399) 
None

>  <Target ChEMBL ID>  (399) 
CHEMBL2815

>  <Target Name>  (399) 
Nerve growth factor receptor Trk-A

>  <Target Organism>  (399) 
Homo sapiens

>  <Target Type>  (399) 
SINGLE PROTEIN

>  <Document ChEMBL ID>  (399) 
CHEMBL3638907

>  <Source Description>  (399) 
BindingDB Database

>  <Document Journal>  (399) 
nan

>  <Document Year>  (399) 
2014.0

>  <Active>  (399) 
1.0

>  <bits>  (399) 
<rdkit.DataStructs.cDataStructs.ExplicitBitVect object at 0x00000159F78D29D0>

>  <Group>  (399) 
G2

$$$$

     RDKit          2D

 28 31  0  0  0  0  0  0  0  0999 V2000
   -6.1170   -7.0506    0.0000 C   0  0  0  0  0  0  0  0  0  0  0  0
   -4.6904   -6.5871    0.0000 C   0  0  0  0  0  0  0  0  0  0  0  0
   -3.5757   -7.5908    0.0000 O   0  0  0  0  0  0  0  0  0  0  0  0
   -4.3786   -5.1199    0.0000 C   0  0  0  0  0  0  0  0  0  0  0  0
   -2.9520   -4.6564    0.0000 N   0  0  0  0  0  0  0  0  0  0  0  0
   -2.6401   -3.1891    0.0000 C   0  0  0  0  0  0  0  0  0  0  0  0
   -3.7548   -2.1855    0.0000 O   0  0  0  0  0  0  0  0  0  0  0  0
   -1.2135   -2.7256    0.0000 C   0  0  0  0  0  0  0  0  0  0  0  0
   -0.0000   -3.6073    0.0000 C   0  0  0  0  0  0  0  0  0  0  0  0
    1.2135   -2.7256    0.0000 N   0  0  0  0  0  0  0  0  0  0  0  0
    0.7500   -1.2990    0.0000 N   0  0  0  0  0  0  0  0  0  0  0  0
    1.5000    0.0000    0.0000 C   0  0  0  0  0  0  0  0  0  0  0  0
    0.7500    1.2990    0.0000 C   0  0  0  0  0  0  0  0  0  0  0  0
   -0.7500    1.2990    0.0000 C   0  0  0  0  0  0  0  0  0  0  0  0
   -1.5000    2.5981    0.0000 N   0  0  0  0  0  0  0  0  0  0  0  0
   -2.9918    2.7549    0.0000 C   0  0  0  0  0  0  0  0  0  0  0  0
   -3.3037    4.2221    0.0000 C   0  0  0  0  0  0  0  0  0  0  0  0
   -2.0046    4.9721    0.0000 C   0  0  0  0  0  0  0  0  0  0  0  0
   -0.8899    3.9684    0.0000 C   0  0  0  0  0  0  0  0  0  0  0  0
    0.5773    4.2803    0.0000 C   0  0  0  0  0  0  0  0  0  0  0  0
    1.5810    3.1655    0.0000 C   0  0  0  0  0  0  0  0  0  0  0  0
    3.0482    3.4774    0.0000 N   0  0  0  0  0  0  0  0  0  0  0  0
    3.5118    4.9040    0.0000 C   0  0  0  0  0  0  0  0  0  0  0  0
    2.5081    6.0187    0.0000 C   0  0  0  0  0  0  0  0  0  0  0  0
    2.9716    7.4453    0.0000 F   0  0  0  0  0  0  0  0  0  0  0  0
    1.0409    5.7068    0.0000 C   0  0  0  0  0  0  0  0  0  0  0  0
   -1.5000    0.0000    0.0000 N   0  0  0  0  0  0  0  0  0  0  0  0
   -0.7500   -1.2990    0.0000 C   0  0  0  0  0  0  0  0  0  0  0  0
  2  1  1  1
  2  3  1  0
  2  4  1  0
  4  5  1  0
  5  6  1  0
  6  7  2  0
  6  8  1  0
  8  9  1  0
  9 10  2  0
 10 11  1  0
 11 12  1  0
 12 13  2  0
 13 14  1  0
 14 15  1  0
 15 16  1  0
 16 17  1  0
 17 18  1  0
 18 19  1  0
 19 20  1  0
 20 21  2  0
 21 22  1  0
 22 23  2  0
 23 24  1  0
 24 25  1  0
 24 26  2  0
 14 27  2  0
 27 28  1  0
 28  8  2  0
 28 11  1  0
 19 15  1  0
 26 20  1  0
M  END
>  <Compound_ID>  (400) 
CHEMBL3675983

>  <Molecule Name>  (400) 
nan

>  <Molecular Weight>  (400) 
384.42

>  <AlogP>  (400) 
1.72

>  <Smiles>  (400) 
C[C@H](O)CNC(=O)c1cnn2ccc(N3CCCC3c3cncc(F)c3)nc12

>  <Standard Type>  (400) 
IC50

>  <Standard Relation>  (400) 
'='

>  <Standard Units>  (400) 
nM

>  <Standard Value>  (400) 
36.7

>  <Assay ChEMBL ID>  (400) 
CHEMBL3887070

>  <Assay Description>  (400) 
ELISA Assay: An enzyme-linked immunosorbant assay (ELISA) was used to assess TrkA kinase activity in the presence of inhibitors. Immulon 4HBX 384-well microtiter plates (Thermo part #8755) were coated with a 0.025 mg/mL solution of poly (Glu, Ala, Tyr; 6:3:1; Sigma P3899). Various concentrations of test compound, 2.5 nM TrkA (Invitrogen Corp., histidine-tagged recombinant human TrkA, cytoplasmic domain), and 500 uM ATP were incubated for 25 minutes at ambient temperature in the coated plates while shaking The assay buffer consisted of 25 mM MOPS pH 7.5, 0.005% (v/v) Triton X-100 and 5 mM MgCl2. The reaction mixture was removed from the plate by washing with PBS containing 0.1% (v/v) Tween 20. The phosphorylated reaction product was detected using 0.2 ug/mL of a phosphotyrosine specific monoclonal antibody (clone PY20) conjugated to horseradish peroxidase in conjunction with the TMB Peroxidase Substrate System (KPL).

>  <BAO Format ID>  (400) 
BAO_0000357

>  <BAO Label>  (400) 
single protein format

>  <Assay Organism>  (400) 
None

>  <Target ChEMBL ID>  (400) 
CHEMBL2815

>  <Target Name>  (400) 
Nerve growth factor receptor Trk-A

>  <Target Organism>  (400) 
Homo sapiens

>  <Target Type>  (400) 
SINGLE PROTEIN

>  <Document ChEMBL ID>  (400) 
CHEMBL3638907

>  <Source Description>  (400) 
BindingDB Database

>  <Document Journal>  (400) 
nan

>  <Document Year>  (400) 
2014.0

>  <Active>  (400) 
1.0

>  <bits>  (400) 
<rdkit.DataStructs.cDataStructs.ExplicitBitVect object at 0x00000159F78D2340>

>  <Group>  (400) 
G2

$$$$

     RDKit          2D

 37 40  0  0  0  0  0  0  0  0999 V2000
   -2.1766   -4.6157    0.0000 C   0  0  0  0  0  0  0  0  0  0  0  0
   -2.6401   -3.1891    0.0000 C   0  0  0  0  0  0  0  0  0  0  0  0
   -3.1036   -1.7626    0.0000 C   0  0  0  0  0  0  0  0  0  0  0  0
   -4.5709   -1.4507    0.0000 O   0  0  0  0  0  0  0  0  0  0  0  0
   -4.0667   -3.6527    0.0000 C   0  0  0  0  0  0  0  0  0  0  0  0
   -5.1814   -2.6490    0.0000 O   0  0  0  0  0  0  0  0  0  0  0  0
   -1.2135   -2.7256    0.0000 N   0  0  0  0  0  0  0  0  0  0  0  0
   -0.0000   -3.6073    0.0000 C   0  0  0  0  0  0  0  0  0  0  0  0
    1.2135   -2.7256    0.0000 C   0  0  0  0  0  0  0  0  0  0  0  0
    2.6401   -3.1891    0.0000 C   0  0  0  0  0  0  0  0  0  0  0  0
    3.7548   -2.1855    0.0000 O   0  0  0  0  0  0  0  0  0  0  0  0
    2.9520   -4.6564    0.0000 C   0  0  0  0  0  0  0  0  0  0  0  0
    1.8373   -5.6601    0.0000 C   0  0  0  0  0  0  0  0  0  0  0  0
    2.1491   -7.1273    0.0000 N   0  0  0  0  0  0  0  0  0  0  0  0
    3.5757   -7.5908    0.0000 C   0  0  0  0  0  0  0  0  0  0  0  0
    4.6904   -6.5871    0.0000 C   0  0  0  0  0  0  0  0  0  0  0  0
    6.1170   -7.0506    0.0000 N   0  0  0  0  0  0  0  0  0  0  0  0
    6.4289   -8.5179    0.0000 C   0  0  0  0  0  0  0  0  0  0  0  0
    5.3142   -9.5216    0.0000 O   0  0  0  0  0  0  0  0  0  0  0  0
    7.8555   -8.9814    0.0000 C   0  0  0  0  0  0  0  0  0  0  0  0
    8.1673  -10.4486    0.0000 C   0  0  0  0  0  0  0  0  0  0  0  0
    7.0526  -11.4523    0.0000 C   0  0  0  0  0  0  0  0  0  0  0  0
    7.3645  -12.9195    0.0000 C   0  0  0  0  0  0  0  0  0  0  0  0
    8.7911  -13.3831    0.0000 C   0  0  0  0  0  0  0  0  0  0  0  0
    9.9058  -12.3794    0.0000 C   0  0  0  0  0  0  0  0  0  0  0  0
   11.3324  -12.8429    0.0000 C   0  0  0  0  0  0  0  0  0  0  0  0
   12.7590  -13.3064    0.0000 F   0  0  0  0  0  0  0  0  0  0  0  0
   10.8688  -14.2695    0.0000 F   0  0  0  0  0  0  0  0  0  0  0  0
   11.7959  -11.4163    0.0000 F   0  0  0  0  0  0  0  0  0  0  0  0
    9.5939  -10.9121    0.0000 C   0  0  0  0  0  0  0  0  0  0  0  0
    4.3786   -5.1199    0.0000 C   0  0  0  0  0  0  0  0  0  0  0  0
    0.7500   -1.2990    0.0000 C   0  0  0  0  0  0  0  0  0  0  0  0
    1.5000    0.0000    0.0000 C   0  0  0  0  0  0  0  0  0  0  0  0
    0.7500    1.2990    0.0000 N   0  0  0  0  0  0  0  0  0  0  0  0
   -0.7500    1.2990    0.0000 C   0  0  0  0  0  0  0  0  0  0  0  0
   -1.5000    0.0000    0.0000 N   0  0  0  0  0  0  0  0  0  0  0  0
   -0.7500   -1.2990    0.0000 C   0  0  0  0  0  0  0  0  0  0  0  0
  1  2  1  0
  2  3  1  0
  3  4  1  0
  2  5  1  0
  5  6  1  0
  2  7  1  0
  7  8  1  0
  8  9  2  0
  9 10  1  0
 10 11  2  0
 10 12  1  0
 12 13  2  0
 13 14  1  0
 14 15  2  0
 15 16  1  0
 16 17  1  0
 17 18  1  0
 18 19  2  0
 18 20  1  0
 20 21  1  0
 21 22  2  0
 22 23  1  0
 23 24  2  0
 24 25  1  0
 25 26  1  0
 26 27  1  0
 26 28  1  0
 26 29  1  0
 25 30  2  0
 16 31  2  0
  9 32  1  0
 32 33  2  0
 33 34  1  0
 34 35  2  0
 35 36  1  0
 36 37  2  0
 37  7  1  0
 31 12  1  0
 37 32  1  0
 30 21  1  0
M  END
>  <Compound_ID>  (401) 
CHEMBL3661627

>  <Molecule Name>  (401) 
nan

>  <Molecular Weight>  (401) 
513.48

>  <AlogP>  (401) 
2.96

>  <Smiles>  (401) 
CC(CO)(CO)n1cc(C(=O)c2cncc(NC(=O)Cc3cccc(C(F)(F)F)c3)c2)c2cncnc21

>  <Standard Type>  (401) 
IC50

>  <Standard Relation>  (401) 
'='

>  <Standard Units>  (401) 
nM

>  <Standard Value>  (401) 
9.36

>  <Assay ChEMBL ID>  (401) 
CHEMBL3887033

>  <Assay Description>  (401) 
Enzyme Assay: Isolated TRK Enzyme assays use the HTRF KinEASE-TK kit (Cisbio Cat# 62TK0PEJ) with recombinant His-tagged cytoplasmic domains of each TRK receptor sourced from Invitrogen (see table below). This activity-assay measures the phosphorylation of tyrosine residues within a substrate from the HTRF kit which has been validated by Cisbio for a variety of tyrosine kinases including the TRK receptors. Assay details: Target:TRKA; Invitrogen Cat# PV3144; Amino acids:aa 441-796; FAC enzyme:4nM; FAC ATP:40uM; Assay Reaction Time:35min.

>  <BAO Format ID>  (401) 
BAO_0000357

>  <BAO Label>  (401) 
single protein format

>  <Assay Organism>  (401) 
None

>  <Target ChEMBL ID>  (401) 
CHEMBL2815

>  <Target Name>  (401) 
Nerve growth factor receptor Trk-A

>  <Target Organism>  (401) 
Homo sapiens

>  <Target Type>  (401) 
SINGLE PROTEIN

>  <Document ChEMBL ID>  (401) 
CHEMBL3639348

>  <Source Description>  (401) 
BindingDB Database

>  <Document Journal>  (401) 
nan

>  <Document Year>  (401) 
2014.0

>  <Active>  (401) 
1.0

>  <bits>  (401) 
<rdkit.DataStructs.cDataStructs.ExplicitBitVect object at 0x00000159F78D34C0>

>  <Group>  (401) 
G2

$$$$

     RDKit          2D

 36 39  0  0  0  0  0  0  0  0999 V2000
   -2.9520   -4.6564    0.0000 C   0  0  0  0  0  0  0  0  0  0  0  0
   -2.6401   -3.1891    0.0000 C   0  0  0  0  0  0  0  0  0  0  0  0
   -3.7548   -2.1855    0.0000 C   0  0  0  0  0  0  0  0  0  0  0  0
   -1.2135   -2.7256    0.0000 N   0  0  0  0  0  0  0  0  0  0  0  0
   -0.0000   -3.6073    0.0000 C   0  0  0  0  0  0  0  0  0  0  0  0
    1.2135   -2.7256    0.0000 C   0  0  0  0  0  0  0  0  0  0  0  0
    2.6401   -3.1891    0.0000 C   0  0  0  0  0  0  0  0  0  0  0  0
    3.7548   -2.1855    0.0000 O   0  0  0  0  0  0  0  0  0  0  0  0
    2.9520   -4.6564    0.0000 C   0  0  0  0  0  0  0  0  0  0  0  0
    1.8373   -5.6601    0.0000 C   0  0  0  0  0  0  0  0  0  0  0  0
    2.1491   -7.1273    0.0000 N   0  0  0  0  0  0  0  0  0  0  0  0
    3.5757   -7.5908    0.0000 C   0  0  0  0  0  0  0  0  0  0  0  0
    4.6904   -6.5871    0.0000 C   0  0  0  0  0  0  0  0  0  0  0  0
    6.1170   -7.0506    0.0000 N   0  0  0  0  0  0  0  0  0  0  0  0
    6.4289   -8.5179    0.0000 C   0  0  0  0  0  0  0  0  0  0  0  0
    5.3142   -9.5216    0.0000 O   0  0  0  0  0  0  0  0  0  0  0  0
    7.8555   -8.9814    0.0000 C   0  0  0  0  0  0  0  0  0  0  0  0
    8.1673  -10.4486    0.0000 O   0  0  0  0  0  0  0  0  0  0  0  0
    9.5939  -10.9121    0.0000 C   0  0  0  0  0  0  0  0  0  0  0  0
    9.9058  -12.3794    0.0000 C   0  0  0  0  0  0  0  0  0  0  0  0
   11.3324  -12.8429    0.0000 C   0  0  0  0  0  0  0  0  0  0  0  0
   12.4471  -11.8392    0.0000 C   0  0  0  0  0  0  0  0  0  0  0  0
   13.8737  -12.3027    0.0000 O   0  0  0  0  0  0  0  0  0  0  0  0
   14.1855  -13.7699    0.0000 C   0  0  0  0  0  0  0  0  0  0  0  0
   14.4974  -15.2372    0.0000 F   0  0  0  0  0  0  0  0  0  0  0  0
   15.6528  -13.4581    0.0000 F   0  0  0  0  0  0  0  0  0  0  0  0
   12.7183  -14.0818    0.0000 F   0  0  0  0  0  0  0  0  0  0  0  0
   12.1352  -10.3720    0.0000 C   0  0  0  0  0  0  0  0  0  0  0  0
   10.7086   -9.9084    0.0000 C   0  0  0  0  0  0  0  0  0  0  0  0
    4.3786   -5.1199    0.0000 C   0  0  0  0  0  0  0  0  0  0  0  0
    0.7500   -1.2990    0.0000 C   0  0  0  0  0  0  0  0  0  0  0  0
    1.5000    0.0000    0.0000 C   0  0  0  0  0  0  0  0  0  0  0  0
    0.7500    1.2990    0.0000 N   0  0  0  0  0  0  0  0  0  0  0  0
   -0.7500    1.2990    0.0000 C   0  0  0  0  0  0  0  0  0  0  0  0
   -1.5000    0.0000    0.0000 N   0  0  0  0  0  0  0  0  0  0  0  0
   -0.7500   -1.2990    0.0000 C   0  0  0  0  0  0  0  0  0  0  0  0
  1  2  1  0
  2  3  1  0
  2  4  1  0
  4  5  1  0
  5  6  2  0
  6  7  1  0
  7  8  2  0
  7  9  1  0
  9 10  2  0
 10 11  1  0
 11 12  2  0
 12 13  1  0
 13 14  1  0
 14 15  1  0
 15 16  2  0
 15 17  1  0
 17 18  1  0
 18 19  1  0
 19 20  2  0
 20 21  1  0
 21 22  2  0
 22 23  1  0
 23 24  1  0
 24 25  1  0
 24 26  1  0
 24 27  1  0
 22 28  1  0
 28 29  2  0
 13 30  2  0
  6 31  1  0
 31 32  2  0
 32 33  1  0
 33 34  2  0
 34 35  1  0
 35 36  2  0
 36  4  1  0
 30  9  1  0
 36 31  1  0
 29 19  1  0
M  END
>  <Compound_ID>  (402) 
CHEMBL3666337

>  <Molecule Name>  (402) 
nan

>  <Molecular Weight>  (402) 
499.45

>  <AlogP>  (402) 
4.55

>  <Smiles>  (402) 
CC(C)n1cc(C(=O)c2cncc(NC(=O)COc3ccc(OC(F)(F)F)cc3)c2)c2cncnc21

>  <Standard Type>  (402) 
IC50

>  <Standard Relation>  (402) 
'='

>  <Standard Units>  (402) 
nM

>  <Standard Value>  (402) 
36.6

>  <Assay ChEMBL ID>  (402) 
CHEMBL3887033

>  <Assay Description>  (402) 
Enzyme Assay: Isolated TRK Enzyme assays use the HTRF KinEASE-TK kit (Cisbio Cat# 62TK0PEJ) with recombinant His-tagged cytoplasmic domains of each TRK receptor sourced from Invitrogen (see table below). This activity-assay measures the phosphorylation of tyrosine residues within a substrate from the HTRF kit which has been validated by Cisbio for a variety of tyrosine kinases including the TRK receptors. Assay details: Target:TRKA; Invitrogen Cat# PV3144; Amino acids:aa 441-796; FAC enzyme:4nM; FAC ATP:40uM; Assay Reaction Time:35min.

>  <BAO Format ID>  (402) 
BAO_0000357

>  <BAO Label>  (402) 
single protein format

>  <Assay Organism>  (402) 
None

>  <Target ChEMBL ID>  (402) 
CHEMBL2815

>  <Target Name>  (402) 
Nerve growth factor receptor Trk-A

>  <Target Organism>  (402) 
Homo sapiens

>  <Target Type>  (402) 
SINGLE PROTEIN

>  <Document ChEMBL ID>  (402) 
CHEMBL3639348

>  <Source Description>  (402) 
BindingDB Database

>  <Document Journal>  (402) 
nan

>  <Document Year>  (402) 
2014.0

>  <Active>  (402) 
1.0

>  <bits>  (402) 
<rdkit.DataStructs.cDataStructs.ExplicitBitVect object at 0x00000159F78D1850>

>  <Group>  (402) 
G2

$$$$

     RDKit          2D

 33 37  0  0  0  0  0  0  0  0999 V2000
   -2.9520   -4.6564    0.0000 C   0  0  0  0  0  0  0  0  0  0  0  0
   -2.6401   -3.1891    0.0000 C   0  0  0  0  0  0  0  0  0  0  0  0
   -3.7548   -2.1855    0.0000 C   0  0  0  0  0  0  0  0  0  0  0  0
   -1.2135   -2.7256    0.0000 N   0  0  0  0  0  0  0  0  0  0  0  0
   -0.0000   -3.6073    0.0000 C   0  0  0  0  0  0  0  0  0  0  0  0
    1.2135   -2.7256    0.0000 C   0  0  0  0  0  0  0  0  0  0  0  0
    2.6401   -3.1891    0.0000 C   0  0  0  0  0  0  0  0  0  0  0  0
    3.7548   -2.1855    0.0000 O   0  0  0  0  0  0  0  0  0  0  0  0
    2.9520   -4.6564    0.0000 C   0  0  0  0  0  0  0  0  0  0  0  0
    1.8373   -5.6601    0.0000 C   0  0  0  0  0  0  0  0  0  0  0  0
    2.1491   -7.1273    0.0000 N   0  0  0  0  0  0  0  0  0  0  0  0
    3.5757   -7.5908    0.0000 C   0  0  0  0  0  0  0  0  0  0  0  0
    4.6904   -6.5871    0.0000 C   0  0  0  0  0  0  0  0  0  0  0  0
    6.1170   -7.0506    0.0000 N   0  0  0  0  0  0  0  0  0  0  0  0
    6.4289   -8.5179    0.0000 C   0  0  0  0  0  0  0  0  0  0  0  0
    5.3142   -9.5216    0.0000 O   0  0  0  0  0  0  0  0  0  0  0  0
    7.8555   -8.9814    0.0000 C   0  0  0  0  0  0  0  0  0  0  0  0
    8.1673  -10.4486    0.0000 N   0  0  0  0  0  0  0  0  0  0  0  0
    9.5377  -11.0587    0.0000 C   0  0  0  0  0  0  0  0  0  0  0  0
    9.3809  -12.5505    0.0000 C   0  0  0  0  0  0  0  0  0  0  0  0
   10.4956  -13.5542    0.0000 C   0  0  0  0  0  0  0  0  0  0  0  0
   11.9628  -13.8661    0.0000 C   0  0  0  0  0  0  0  0  0  0  0  0
   10.9591  -14.9808    0.0000 C   0  0  0  0  0  0  0  0  0  0  0  0
    7.9136  -12.8624    0.0000 N   0  0  0  0  0  0  0  0  0  0  0  0
    7.1636  -11.5633    0.0000 N   0  0  0  0  0  0  0  0  0  0  0  0
    4.3786   -5.1199    0.0000 C   0  0  0  0  0  0  0  0  0  0  0  0
    0.7500   -1.2990    0.0000 C   0  0  0  0  0  0  0  0  0  0  0  0
    1.5000    0.0000    0.0000 C   0  0  0  0  0  0  0  0  0  0  0  0
    0.7500    1.2990    0.0000 N   0  0  0  0  0  0  0  0  0  0  0  0
   -0.7500    1.2990    0.0000 C   0  0  0  0  0  0  0  0  0  0  0  0
   -1.5000    2.5981    0.0000 N   0  0  0  0  0  0  0  0  0  0  0  0
   -1.5000    0.0000    0.0000 N   0  0  0  0  0  0  0  0  0  0  0  0
   -0.7500   -1.2990    0.0000 C   0  0  0  0  0  0  0  0  0  0  0  0
  1  2  1  0
  2  3  1  0
  2  4  1  0
  4  5  1  0
  5  6  2  0
  6  7  1  0
  7  8  2  0
  7  9  1  0
  9 10  2  0
 10 11  1  0
 11 12  2  0
 12 13  1  0
 13 14  1  0
 14 15  1  0
 15 16  2  0
 15 17  1  0
 17 18  1  0
 18 19  1  0
 19 20  2  0
 20 21  1  0
 21 22  1  0
 22 23  1  0
 20 24  1  0
 24 25  2  0
 13 26  2  0
  6 27  1  0
 27 28  2  0
 28 29  1  0
 29 30  2  0
 30 31  1  0
 30 32  1  0
 32 33  2  0
 33  4  1  0
 26  9  1  0
 33 27  1  0
 25 18  1  0
 23 21  1  0
M  END
>  <Compound_ID>  (403) 
CHEMBL3666253

>  <Molecule Name>  (403) 
nan

>  <Molecular Weight>  (403) 
445.49

>  <AlogP>  (403) 
2.33

>  <Smiles>  (403) 
CC(C)n1cc(C(=O)c2cncc(NC(=O)Cn3cc(C4CC4)nn3)c2)c2cnc(N)nc21

>  <Standard Type>  (403) 
IC50

>  <Standard Relation>  (403) 
'='

>  <Standard Units>  (403) 
nM

>  <Standard Value>  (403) 
35.8

>  <Assay ChEMBL ID>  (403) 
CHEMBL3887033

>  <Assay Description>  (403) 
Enzyme Assay: Isolated TRK Enzyme assays use the HTRF KinEASE-TK kit (Cisbio Cat# 62TK0PEJ) with recombinant His-tagged cytoplasmic domains of each TRK receptor sourced from Invitrogen (see table below). This activity-assay measures the phosphorylation of tyrosine residues within a substrate from the HTRF kit which has been validated by Cisbio for a variety of tyrosine kinases including the TRK receptors. Assay details: Target:TRKA; Invitrogen Cat# PV3144; Amino acids:aa 441-796; FAC enzyme:4nM; FAC ATP:40uM; Assay Reaction Time:35min.

>  <BAO Format ID>  (403) 
BAO_0000357

>  <BAO Label>  (403) 
single protein format

>  <Assay Organism>  (403) 
None

>  <Target ChEMBL ID>  (403) 
CHEMBL2815

>  <Target Name>  (403) 
Nerve growth factor receptor Trk-A

>  <Target Organism>  (403) 
Homo sapiens

>  <Target Type>  (403) 
SINGLE PROTEIN

>  <Document ChEMBL ID>  (403) 
CHEMBL3639348

>  <Source Description>  (403) 
BindingDB Database

>  <Document Journal>  (403) 
nan

>  <Document Year>  (403) 
2014.0

>  <Active>  (403) 
1.0

>  <bits>  (403) 
<rdkit.DataStructs.cDataStructs.ExplicitBitVect object at 0x00000159F78D33E0>

>  <Group>  (403) 
G2

$$$$

     RDKit          2D

 26 29  0  0  0  0  0  0  0  0999 V2000
    1.5000   -7.7942    0.0000 F   0  0  0  0  0  0  0  0  0  0  0  0
    0.7500   -6.4952    0.0000 C   0  0  0  0  0  0  0  0  0  0  0  0
   -0.7500   -6.4952    0.0000 C   0  0  0  0  0  0  0  0  0  0  0  0
   -1.5000   -5.1962    0.0000 C   0  0  0  0  0  0  0  0  0  0  0  0
   -3.0000   -5.1962    0.0000 F   0  0  0  0  0  0  0  0  0  0  0  0
   -0.7500   -3.8971    0.0000 C   0  0  0  0  0  0  0  0  0  0  0  0
    0.7500   -3.8971    0.0000 C   0  0  0  0  0  0  0  0  0  0  0  0
    1.5000   -2.5981    0.0000 O   0  0  0  0  0  0  0  0  0  0  0  0
    0.7500   -1.2990    0.0000 C   0  0  0  0  0  0  0  0  0  0  0  0
    1.5000    0.0000    0.0000 C   0  0  0  0  0  0  0  0  0  0  0  0
    0.7500    1.2990    0.0000 C   0  0  0  0  0  0  0  0  0  0  0  0
   -0.7500    1.2990    0.0000 C   0  0  0  0  0  0  0  0  0  0  0  0
   -1.7537    2.4138    0.0000 N   0  0  0  0  0  0  0  0  0  0  0  0
   -3.1240    1.8037    0.0000 N   0  0  0  0  0  0  0  0  0  0  0  0
   -2.9672    0.3119    0.0000 C   0  0  0  0  0  0  0  0  0  0  0  0
   -4.0819   -0.6918    0.0000 C   0  0  0  0  0  0  0  0  0  0  0  0
   -5.5085   -0.2283    0.0000 C   0  0  0  0  0  0  0  0  0  0  0  0
   -6.6232   -1.2320    0.0000 C   0  0  0  0  0  0  0  0  0  0  0  0
   -8.0498   -0.7685    0.0000 C   0  0  0  0  0  0  0  0  0  0  0  0
   -9.1645   -1.7722    0.0000 C   0  0  0  0  0  0  0  0  0  0  0  0
   -8.8527   -3.2394    0.0000 C   0  0  0  0  0  0  0  0  0  0  0  0
   -7.4261   -3.7029    0.0000 C   0  0  0  0  0  0  0  0  0  0  0  0
   -6.3114   -2.6992    0.0000 N   0  0  0  0  0  0  0  0  0  0  0  0
   -1.5000    0.0000    0.0000 C   0  0  0  0  0  0  0  0  0  0  0  0
   -0.7500   -1.2990    0.0000 C   0  0  0  0  0  0  0  0  0  0  0  0
    1.5000   -5.1962    0.0000 C   0  0  0  0  0  0  0  0  0  0  0  0
  1  2  1  0
  2  3  2  0
  3  4  1  0
  4  5  1  0
  4  6  2  0
  6  7  1  0
  7  8  1  0
  8  9  1  0
  9 10  2  0
 10 11  1  0
 11 12  2  0
 12 13  1  0
 13 14  1  0
 14 15  2  0
 15 16  1  0
 16 17  2  0
 17 18  1  0
 18 19  2  0
 19 20  1  0
 20 21  2  0
 21 22  1  0
 22 23  2  0
 15 24  1  0
 24 25  2  0
  7 26  2  0
 26  2  1  0
 25  9  1  0
 24 12  1  0
 23 18  1  0
M  END
>  <Compound_ID>  (404) 
CHEMBL4778721

>  <Molecule Name>  (404) 
nan

>  <Molecular Weight>  (404) 
349.34

>  <AlogP>  (404) 
5.2

>  <Smiles>  (404) 
Fc1cc(F)cc(Oc2ccc3[nH]nc(/C=C/c4ccccn4)c3c2)c1

>  <Standard Type>  (404) 
IC50

>  <Standard Relation>  (404) 
'='

>  <Standard Units>  (404) 
nM

>  <Standard Value>  (404) 
23.3

>  <Assay ChEMBL ID>  (404) 
CHEMBL4772612

>  <Assay Description>  (404) 
Inhibition of TrkA (unknown origin) using Tyr1 peptide as substrate in presence of ATP measured after 2 hrs by FRET-based Z-Lyte kinase assay

>  <BAO Format ID>  (404) 
BAO_0000357

>  <BAO Label>  (404) 
single protein format

>  <Assay Organism>  (404) 
Homo sapiens

>  <Target ChEMBL ID>  (404) 
CHEMBL2815

>  <Target Name>  (404) 
Nerve growth factor receptor Trk-A

>  <Target Organism>  (404) 
Homo sapiens

>  <Target Type>  (404) 
SINGLE PROTEIN

>  <Document ChEMBL ID>  (404) 
CHEMBL4765391

>  <Source Description>  (404) 
Scientific Literature

>  <Document Journal>  (404) 
Eur J Med Chem

>  <Document Year>  (404) 
2020.0

>  <Active>  (404) 
1.0

>  <bits>  (404) 
<rdkit.DataStructs.cDataStructs.ExplicitBitVect object at 0x00000159F78D3530>

>  <Group>  (404) 
G2

$$$$

     RDKit          2D

 35 38  0  0  0  0  0  0  0  0999 V2000
   -2.9520   -4.6564    0.0000 C   0  0  0  0  0  0  0  0  0  0  0  0
   -2.6401   -3.1891    0.0000 C   0  0  0  0  0  0  0  0  0  0  0  0
   -3.7548   -2.1855    0.0000 C   0  0  0  0  0  0  0  0  0  0  0  0
   -3.4430   -0.7182    0.0000 O   0  0  0  0  0  0  0  0  0  0  0  0
   -5.1814   -2.6490    0.0000 N   0  0  0  0  0  0  0  0  0  0  0  0
   -6.2961   -1.6453    0.0000 C   0  0  0  0  0  0  0  0  0  0  0  0
   -5.4933   -4.1162    0.0000 C   0  0  0  0  0  0  0  0  0  0  0  0
   -1.2135   -2.7256    0.0000 N   0  0  0  0  0  0  0  0  0  0  0  0
   -0.0000   -3.6073    0.0000 C   0  0  0  0  0  0  0  0  0  0  0  0
    1.2135   -2.7256    0.0000 C   0  0  0  0  0  0  0  0  0  0  0  0
    2.6401   -3.1891    0.0000 C   0  0  0  0  0  0  0  0  0  0  0  0
    3.7548   -2.1855    0.0000 O   0  0  0  0  0  0  0  0  0  0  0  0
    2.9520   -4.6564    0.0000 C   0  0  0  0  0  0  0  0  0  0  0  0
    1.8373   -5.6601    0.0000 C   0  0  0  0  0  0  0  0  0  0  0  0
    2.1491   -7.1273    0.0000 N   0  0  0  0  0  0  0  0  0  0  0  0
    3.5757   -7.5908    0.0000 C   0  0  0  0  0  0  0  0  0  0  0  0
    4.6904   -6.5871    0.0000 C   0  0  0  0  0  0  0  0  0  0  0  0
    6.1170   -7.0506    0.0000 N   0  0  0  0  0  0  0  0  0  0  0  0
    6.4289   -8.5179    0.0000 C   0  0  0  0  0  0  0  0  0  0  0  0
    5.3142   -9.5216    0.0000 O   0  0  0  0  0  0  0  0  0  0  0  0
    7.8555   -8.9814    0.0000 C   0  0  0  0  0  0  0  0  0  0  0  0
    8.1673  -10.4486    0.0000 C   0  0  0  0  0  0  0  0  0  0  0  0
    7.0526  -11.4523    0.0000 C   0  0  0  0  0  0  0  0  0  0  0  0
    7.3645  -12.9195    0.0000 C   0  0  0  0  0  0  0  0  0  0  0  0
    8.7911  -13.3831    0.0000 C   0  0  0  0  0  0  0  0  0  0  0  0
    9.1029  -14.8503    0.0000 Cl  0  0  0  0  0  0  0  0  0  0  0  0
    9.9058  -12.3794    0.0000 C   0  0  0  0  0  0  0  0  0  0  0  0
    9.5939  -10.9121    0.0000 C   0  0  0  0  0  0  0  0  0  0  0  0
    4.3786   -5.1199    0.0000 C   0  0  0  0  0  0  0  0  0  0  0  0
    0.7500   -1.2990    0.0000 C   0  0  0  0  0  0  0  0  0  0  0  0
    1.5000    0.0000    0.0000 C   0  0  0  0  0  0  0  0  0  0  0  0
    0.7500    1.2990    0.0000 N   0  0  0  0  0  0  0  0  0  0  0  0
   -0.7500    1.2990    0.0000 C   0  0  0  0  0  0  0  0  0  0  0  0
   -1.5000    0.0000    0.0000 N   0  0  0  0  0  0  0  0  0  0  0  0
   -0.7500   -1.2990    0.0000 C   0  0  0  0  0  0  0  0  0  0  0  0
  1  2  1  0
  2  3  1  0
  3  4  2  0
  3  5  1  0
  5  6  1  0
  5  7  1  0
  2  8  1  0
  8  9  1  0
  9 10  2  0
 10 11  1  0
 11 12  2  0
 11 13  1  0
 13 14  2  0
 14 15  1  0
 15 16  2  0
 16 17  1  0
 17 18  1  0
 18 19  1  0
 19 20  2  0
 19 21  1  0
 21 22  1  0
 22 23  2  0
 23 24  1  0
 24 25  2  0
 25 26  1  0
 25 27  1  0
 27 28  2  0
 17 29  2  0
 10 30  1  0
 30 31  2  0
 31 32  1  0
 32 33  2  0
 33 34  1  0
 34 35  2  0
 35  8  1  0
 29 13  1  0
 35 30  1  0
 28 22  1  0
M  END
>  <Compound_ID>  (405) 
CHEMBL3661620

>  <Molecule Name>  (405) 
nan

>  <Molecular Weight>  (405) 
490.95

>  <AlogP>  (405) 
3.54

>  <Smiles>  (405) 
CC(C(=O)N(C)C)n1cc(C(=O)c2cncc(NC(=O)Cc3ccc(Cl)cc3)c2)c2cncnc21

>  <Standard Type>  (405) 
IC50

>  <Standard Relation>  (405) 
'='

>  <Standard Units>  (405) 
nM

>  <Standard Value>  (405) 
63.7

>  <Assay ChEMBL ID>  (405) 
CHEMBL3887033

>  <Assay Description>  (405) 
Enzyme Assay: Isolated TRK Enzyme assays use the HTRF KinEASE-TK kit (Cisbio Cat# 62TK0PEJ) with recombinant His-tagged cytoplasmic domains of each TRK receptor sourced from Invitrogen (see table below). This activity-assay measures the phosphorylation of tyrosine residues within a substrate from the HTRF kit which has been validated by Cisbio for a variety of tyrosine kinases including the TRK receptors. Assay details: Target:TRKA; Invitrogen Cat# PV3144; Amino acids:aa 441-796; FAC enzyme:4nM; FAC ATP:40uM; Assay Reaction Time:35min.

>  <BAO Format ID>  (405) 
BAO_0000357

>  <BAO Label>  (405) 
single protein format

>  <Assay Organism>  (405) 
None

>  <Target ChEMBL ID>  (405) 
CHEMBL2815

>  <Target Name>  (405) 
Nerve growth factor receptor Trk-A

>  <Target Organism>  (405) 
Homo sapiens

>  <Target Type>  (405) 
SINGLE PROTEIN

>  <Document ChEMBL ID>  (405) 
CHEMBL3639348

>  <Source Description>  (405) 
BindingDB Database

>  <Document Journal>  (405) 
nan

>  <Document Year>  (405) 
2014.0

>  <Active>  (405) 
1.0

>  <bits>  (405) 
<rdkit.DataStructs.cDataStructs.ExplicitBitVect object at 0x00000159F78D1700>

>  <Group>  (405) 
G2

$$$$

     RDKit          2D

 33 36  0  0  0  0  0  0  0  0999 V2000
   -8.3172   -3.2650    0.0000 C   0  0  0  0  0  0  0  0  0  0  0  0
   -9.6162   -4.0150    0.0000 C   0  0  0  0  0  0  0  0  0  0  0  0
  -10.9866   -3.4049    0.0000 C   0  0  0  0  0  0  0  0  0  0  0  0
  -11.9903   -4.5196    0.0000 C   0  0  0  0  0  0  0  0  0  0  0  0
  -13.4820   -4.3628    0.0000 C   0  0  0  0  0  0  0  0  0  0  0  0
  -14.0921   -2.9925    0.0000 C   0  0  0  0  0  0  0  0  0  0  0  0
  -14.3637   -5.5763    0.0000 C   0  0  0  0  0  0  0  0  0  0  0  0
  -11.2403   -5.8186    0.0000 N   0  0  0  0  0  0  0  0  0  0  0  0
   -9.7730   -5.5068    0.0000 N   0  0  0  0  0  0  0  0  0  0  0  0
   -8.6583   -6.5105    0.0000 C   0  0  0  0  0  0  0  0  0  0  0  0
   -7.2317   -6.0469    0.0000 C   0  0  0  0  0  0  0  0  0  0  0  0
   -6.9199   -4.5797    0.0000 O   0  0  0  0  0  0  0  0  0  0  0  0
   -6.1170   -7.0506    0.0000 N   0  0  0  0  0  0  0  0  0  0  0  0
   -4.6904   -6.5871    0.0000 C   0  0  0  0  0  0  0  0  0  0  0  0
   -3.5757   -7.5908    0.0000 C   0  0  0  0  0  0  0  0  0  0  0  0
   -2.1491   -7.1273    0.0000 N   0  0  0  0  0  0  0  0  0  0  0  0
   -1.8373   -5.6601    0.0000 C   0  0  0  0  0  0  0  0  0  0  0  0
   -2.9520   -4.6564    0.0000 C   0  0  0  0  0  0  0  0  0  0  0  0
   -2.6401   -3.1891    0.0000 C   0  0  0  0  0  0  0  0  0  0  0  0
   -3.7548   -2.1855    0.0000 O   0  0  0  0  0  0  0  0  0  0  0  0
   -1.2135   -2.7256    0.0000 C   0  0  0  0  0  0  0  0  0  0  0  0
   -0.0000   -3.6073    0.0000 C   0  0  0  0  0  0  0  0  0  0  0  0
    1.2135   -2.7256    0.0000 N   0  0  0  0  0  0  0  0  0  0  0  0
    2.6401   -3.1891    0.0000 C   0  0  0  0  0  0  0  0  0  0  0  0
    2.9520   -4.6564    0.0000 C   0  0  0  0  0  0  0  0  0  0  0  0
    3.7548   -2.1855    0.0000 C   0  0  0  0  0  0  0  0  0  0  0  0
    0.7500   -1.2990    0.0000 C   0  0  0  0  0  0  0  0  0  0  0  0
    1.5000    0.0000    0.0000 N   0  0  0  0  0  0  0  0  0  0  0  0
    0.7500    1.2990    0.0000 C   0  0  0  0  0  0  0  0  0  0  0  0
   -0.7500    1.2990    0.0000 N   0  0  0  0  0  0  0  0  0  0  0  0
   -1.5000    0.0000    0.0000 C   0  0  0  0  0  0  0  0  0  0  0  0
   -0.7500   -1.2990    0.0000 C   0  0  0  0  0  0  0  0  0  0  0  0
   -4.3786   -5.1199    0.0000 C   0  0  0  0  0  0  0  0  0  0  0  0
  1  2  1  0
  2  3  2  0
  3  4  1  0
  4  5  1  0
  5  6  1  0
  5  7  1  0
  4  8  2  0
  8  9  1  0
  9 10  1  0
 10 11  1  0
 11 12  2  0
 11 13  1  0
 13 14  1  0
 14 15  2  0
 15 16  1  0
 16 17  2  0
 17 18  1  0
 18 19  1  0
 19 20  2  0
 19 21  1  0
 21 22  2  0
 22 23  1  0
 23 24  1  0
 24 25  1  0
 24 26  1  0
 23 27  1  0
 27 28  2  0
 28 29  1  0
 29 30  2  0
 30 31  1  0
 31 32  2  0
 18 33  2  0
  9  2  1  0
 33 14  1  0
 32 21  1  0
 32 27  1  0
M  END
>  <Compound_ID>  (406) 
CHEMBL3661498

>  <Molecule Name>  (406) 
nan

>  <Molecular Weight>  (406) 
445.53

>  <AlogP>  (406) 
3.91

>  <Smiles>  (406) 
Cc1cc(C(C)C)nn1CC(=O)Nc1cncc(C(=O)c2cn(C(C)C)c3ncncc23)c1

>  <Standard Type>  (406) 
IC50

>  <Standard Relation>  (406) 
'='

>  <Standard Units>  (406) 
nM

>  <Standard Value>  (406) 
20.0

>  <Assay ChEMBL ID>  (406) 
CHEMBL3887033

>  <Assay Description>  (406) 
Enzyme Assay: Isolated TRK Enzyme assays use the HTRF KinEASE-TK kit (Cisbio Cat# 62TK0PEJ) with recombinant His-tagged cytoplasmic domains of each TRK receptor sourced from Invitrogen (see table below). This activity-assay measures the phosphorylation of tyrosine residues within a substrate from the HTRF kit which has been validated by Cisbio for a variety of tyrosine kinases including the TRK receptors. Assay details: Target:TRKA; Invitrogen Cat# PV3144; Amino acids:aa 441-796; FAC enzyme:4nM; FAC ATP:40uM; Assay Reaction Time:35min.

>  <BAO Format ID>  (406) 
BAO_0000357

>  <BAO Label>  (406) 
single protein format

>  <Assay Organism>  (406) 
None

>  <Target ChEMBL ID>  (406) 
CHEMBL2815

>  <Target Name>  (406) 
Nerve growth factor receptor Trk-A

>  <Target Organism>  (406) 
Homo sapiens

>  <Target Type>  (406) 
SINGLE PROTEIN

>  <Document ChEMBL ID>  (406) 
CHEMBL3639348

>  <Source Description>  (406) 
BindingDB Database

>  <Document Journal>  (406) 
nan

>  <Document Year>  (406) 
2014.0

>  <Active>  (406) 
1.0

>  <bits>  (406) 
<rdkit.DataStructs.cDataStructs.ExplicitBitVect object at 0x00000159F78D1690>

>  <Group>  (406) 
G2

$$$$

     RDKit          2D

 36 40  0  0  0  0  0  0  0  0999 V2000
  -10.5759   -3.0359    0.0000 C   0  0  0  0  0  0  0  0  0  0  0  0
  -10.8878   -4.5031    0.0000 C   0  0  0  0  0  0  0  0  0  0  0  0
   -9.7730   -5.5068    0.0000 S   0  0  0  0  0  0  0  0  0  0  0  0
   -8.7693   -4.3921    0.0000 O   0  0  0  0  0  0  0  0  0  0  0  0
  -10.7767   -6.6215    0.0000 O   0  0  0  0  0  0  0  0  0  0  0  0
   -8.6583   -6.5105    0.0000 N   0  0  0  0  0  0  0  0  0  0  0  0
   -7.2317   -6.0469    0.0000 C   0  0  0  0  0  0  0  0  0  0  0  0
   -6.9199   -4.5797    0.0000 C   0  0  0  0  0  0  0  0  0  0  0  0
   -5.4933   -4.1162    0.0000 C   0  0  0  0  0  0  0  0  0  0  0  0
   -4.3786   -5.1199    0.0000 C   0  0  0  0  0  0  0  0  0  0  0  0
   -2.9520   -4.6564    0.0000 C   0  0  0  0  0  0  0  0  0  0  0  0
   -1.8373   -5.6601    0.0000 O   0  0  0  0  0  0  0  0  0  0  0  0
   -2.6401   -3.1891    0.0000 N   0  0  0  0  0  0  0  0  0  0  0  0
   -1.2135   -2.7256    0.0000 C   0  0  0  0  0  0  0  0  0  0  0  0
   -0.0000   -3.6073    0.0000 C   0  0  0  0  0  0  0  0  0  0  0  0
    1.2135   -2.7256    0.0000 N   0  0  0  0  0  0  0  0  0  0  0  0
    0.7500   -1.2990    0.0000 N   0  0  0  0  0  0  0  0  0  0  0  0
    1.5000    0.0000    0.0000 C   0  0  0  0  0  0  0  0  0  0  0  0
    0.7500    1.2990    0.0000 C   0  0  0  0  0  0  0  0  0  0  0  0
   -0.7500    1.2990    0.0000 C   0  0  0  0  0  0  0  0  0  0  0  0
   -1.5000    2.5981    0.0000 N   0  0  0  0  0  0  0  0  0  0  0  0
   -2.9918    2.7549    0.0000 C   0  0  0  0  0  0  0  0  0  0  0  0
   -3.3037    4.2221    0.0000 C   0  0  0  0  0  0  0  0  0  0  0  0
   -2.0046    4.9721    0.0000 C   0  0  0  0  0  0  0  0  0  0  0  0
   -0.8899    3.9684    0.0000 C   0  0  0  0  0  0  0  0  0  0  0  0
    0.5773    4.2803    0.0000 C   0  0  0  0  0  0  0  0  0  0  0  0
    1.5810    3.1655    0.0000 C   0  0  0  0  0  0  0  0  0  0  0  0
    3.0482    3.4774    0.0000 C   0  0  0  0  0  0  0  0  0  0  0  0
    3.5118    4.9040    0.0000 C   0  0  0  0  0  0  0  0  0  0  0  0
    2.5081    6.0187    0.0000 C   0  0  0  0  0  0  0  0  0  0  0  0
    2.9716    7.4453    0.0000 F   0  0  0  0  0  0  0  0  0  0  0  0
    1.0409    5.7068    0.0000 C   0  0  0  0  0  0  0  0  0  0  0  0
   -1.5000    0.0000    0.0000 N   0  0  0  0  0  0  0  0  0  0  0  0
   -0.7500   -1.2990    0.0000 C   0  0  0  0  0  0  0  0  0  0  0  0
   -4.6904   -6.5871    0.0000 C   0  0  0  0  0  0  0  0  0  0  0  0
   -6.1170   -7.0506    0.0000 C   0  0  0  0  0  0  0  0  0  0  0  0
  1  2  1  0
  2  3  1  0
  3  4  2  0
  3  5  2  0
  3  6  1  0
  6  7  1  0
  7  8  2  0
  8  9  1  0
  9 10  2  0
 10 11  1  0
 11 12  2  0
 11 13  1  0
 13 14  1  0
 14 15  1  0
 15 16  2  0
 16 17  1  0
 17 18  1  0
 18 19  2  0
 19 20  1  0
 20 21  1  0
 21 22  1  0
 22 23  1  0
 23 24  1  0
 24 25  1  0
 25 26  1  6
 26 27  2  0
 27 28  1  0
 28 29  2  0
 29 30  1  0
 30 31  1  0
 30 32  2  0
 20 33  2  0
 33 34  1  0
 10 35  1  0
 35 36  2  0
 36  7  1  0
 34 14  2  0
 34 17  1  0
 25 21  1  0
 32 26  1  0
M  END
>  <Compound_ID>  (407) 
CHEMBL4111978

>  <Molecule Name>  (407) 
nan

>  <Molecular Weight>  (407) 
508.58

>  <AlogP>  (407) 
4.22

>  <Smiles>  (407) 
CCS(=O)(=O)Nc1ccc(C(=O)Nc2cnn3ccc(N4CCC[C@@H]4c4cccc(F)c4)nc23)cc1

>  <Standard Type>  (407) 
IC50

>  <Standard Relation>  (407) 
'='

>  <Standard Units>  (407) 
nM

>  <Standard Value>  (407) 
45.5

>  <Assay ChEMBL ID>  (407) 
CHEMBL3887076

>  <Assay Description>  (407) 
ELISA Assay: An enzyme-linked immunosorbant assay (ELISA) was used to assess TrkA kinase activity in the presence of inhibitors. Immulon 4HBX 384-well microtiter plates (Thermo part #8755) were coated with a 0.025 mg/mL solution of poly (Glu, Ala, Tyr; 6:3:1; Sigma P3899). Various concentrations of test compound, 2.5 nM TrkA (Invitrogen Corp., histidine-tagged recombinant human TrkA, cytoplasmic domain), and 500 uM ATP were incubated for 25 minutes at ambient temperature in the coated plates while shaking. The assay buffer consisted of 25 mM MOPS pH 7.5, 0.005% (v/v) Triton X-100 and 5 mM MgCl2. The reaction mixture was removed from the plate by washing with PBS containing 0.1% (v/v) Tween 20. The phosphorylated reaction product was detected using 0.2 ug/mL of a phosphotyrosine specific monoclonal antibody (clone PY20) conjugated to horseradish peroxidase in conjunction with the TMB Peroxidase Substrate System (KPL).

>  <BAO Format ID>  (407) 
BAO_0000357

>  <BAO Label>  (407) 
single protein format

>  <Assay Organism>  (407) 
None

>  <Target ChEMBL ID>  (407) 
CHEMBL2815

>  <Target Name>  (407) 
Nerve growth factor receptor Trk-A

>  <Target Organism>  (407) 
Homo sapiens

>  <Target Type>  (407) 
SINGLE PROTEIN

>  <Document ChEMBL ID>  (407) 
CHEMBL3886151

>  <Source Description>  (407) 
BindingDB Database

>  <Document Journal>  (407) 
nan

>  <Document Year>  (407) 
2014.0

>  <Active>  (407) 
1.0

>  <bits>  (407) 
<rdkit.DataStructs.cDataStructs.ExplicitBitVect object at 0x00000159F78D1E00>

>  <Group>  (407) 
G2

$$$$

     RDKit          2D

 31 34  0  0  0  0  0  0  0  0999 V2000
   -3.2232   -6.8990    0.0000 C   0  0  0  0  0  0  0  0  0  0  0  0
   -4.6904   -6.5871    0.0000 C   0  0  0  0  0  0  0  0  0  0  0  0
   -6.1577   -6.2752    0.0000 C   0  0  0  0  0  0  0  0  0  0  0  0
   -5.0023   -8.0543    0.0000 O   0  0  0  0  0  0  0  0  0  0  0  0
   -4.3786   -5.1199    0.0000 C   0  0  0  0  0  0  0  0  0  0  0  0
   -2.9520   -4.6564    0.0000 N   0  0  0  0  0  0  0  0  0  0  0  0
   -2.6401   -3.1891    0.0000 C   0  0  0  0  0  0  0  0  0  0  0  0
   -3.7548   -2.1855    0.0000 O   0  0  0  0  0  0  0  0  0  0  0  0
   -1.2135   -2.7256    0.0000 C   0  0  0  0  0  0  0  0  0  0  0  0
   -0.0000   -3.6073    0.0000 C   0  0  0  0  0  0  0  0  0  0  0  0
    1.2135   -2.7256    0.0000 N   0  0  0  0  0  0  0  0  0  0  0  0
    0.7500   -1.2990    0.0000 N   0  0  0  0  0  0  0  0  0  0  0  0
    1.5000    0.0000    0.0000 C   0  0  0  0  0  0  0  0  0  0  0  0
    0.7500    1.2990    0.0000 C   0  0  0  0  0  0  0  0  0  0  0  0
   -0.7500    1.2990    0.0000 C   0  0  0  0  0  0  0  0  0  0  0  0
   -1.5000    2.5981    0.0000 N   0  0  0  0  0  0  0  0  0  0  0  0
   -2.9918    2.7549    0.0000 C   0  0  0  0  0  0  0  0  0  0  0  0
   -3.3037    4.2221    0.0000 C   0  0  0  0  0  0  0  0  0  0  0  0
   -2.0046    4.9721    0.0000 C   0  0  0  0  0  0  0  0  0  0  0  0
   -0.8899    3.9684    0.0000 C   0  0  0  0  0  0  0  0  0  0  0  0
    0.5773    4.2803    0.0000 C   0  0  0  0  0  0  0  0  0  0  0  0
    1.5810    3.1655    0.0000 C   0  0  0  0  0  0  0  0  0  0  0  0
    3.0482    3.4774    0.0000 C   0  0  0  0  0  0  0  0  0  0  0  0
    4.0519    2.3627    0.0000 F   0  0  0  0  0  0  0  0  0  0  0  0
    3.5118    4.9040    0.0000 C   0  0  0  0  0  0  0  0  0  0  0  0
    2.5081    6.0187    0.0000 C   0  0  0  0  0  0  0  0  0  0  0  0
    1.0409    5.7068    0.0000 C   0  0  0  0  0  0  0  0  0  0  0  0
    0.0372    6.8216    0.0000 C   0  0  0  0  0  0  0  0  0  0  0  0
    0.5007    8.2481    0.0000 O   0  0  0  0  0  0  0  0  0  0  0  0
   -1.5000    0.0000    0.0000 N   0  0  0  0  0  0  0  0  0  0  0  0
   -0.7500   -1.2990    0.0000 C   0  0  0  0  0  0  0  0  0  0  0  0
  1  2  1  0
  2  3  1  0
  2  4  1  0
  2  5  1  0
  5  6  1  0
  6  7  1  0
  7  8  2  0
  7  9  1  0
  9 10  1  0
 10 11  2  0
 11 12  1  0
 12 13  1  0
 13 14  2  0
 14 15  1  0
 15 16  1  0
 16 17  1  0
 17 18  1  0
 18 19  1  0
 19 20  1  0
 20 21  1  0
 21 22  2  0
 22 23  1  0
 23 24  1  0
 23 25  2  0
 25 26  1  0
 26 27  2  0
 27 28  1  0
 28 29  1  0
 15 30  2  0
 30 31  1  0
 31  9  2  0
 31 12  1  0
 20 16  1  0
 27 21  1  0
M  END
>  <Compound_ID>  (408) 
CHEMBL3675927

>  <Molecule Name>  (408) 
nan

>  <Molecular Weight>  (408) 
427.48

>  <AlogP>  (408) 
2.2

>  <Smiles>  (408) 
CC(C)(O)CNC(=O)c1cnn2ccc(N3CCCC3c3cc(F)ccc3CO)nc12

>  <Standard Type>  (408) 
IC50

>  <Standard Relation>  (408) 
'='

>  <Standard Units>  (408) 
nM

>  <Standard Value>  (408) 
4.2

>  <Assay ChEMBL ID>  (408) 
CHEMBL3887070

>  <Assay Description>  (408) 
ELISA Assay: An enzyme-linked immunosorbant assay (ELISA) was used to assess TrkA kinase activity in the presence of inhibitors. Immulon 4HBX 384-well microtiter plates (Thermo part #8755) were coated with a 0.025 mg/mL solution of poly (Glu, Ala, Tyr; 6:3:1; Sigma P3899). Various concentrations of test compound, 2.5 nM TrkA (Invitrogen Corp., histidine-tagged recombinant human TrkA, cytoplasmic domain), and 500 uM ATP were incubated for 25 minutes at ambient temperature in the coated plates while shaking The assay buffer consisted of 25 mM MOPS pH 7.5, 0.005% (v/v) Triton X-100 and 5 mM MgCl2. The reaction mixture was removed from the plate by washing with PBS containing 0.1% (v/v) Tween 20. The phosphorylated reaction product was detected using 0.2 ug/mL of a phosphotyrosine specific monoclonal antibody (clone PY20) conjugated to horseradish peroxidase in conjunction with the TMB Peroxidase Substrate System (KPL).

>  <BAO Format ID>  (408) 
BAO_0000357

>  <BAO Label>  (408) 
single protein format

>  <Assay Organism>  (408) 
None

>  <Target ChEMBL ID>  (408) 
CHEMBL2815

>  <Target Name>  (408) 
Nerve growth factor receptor Trk-A

>  <Target Organism>  (408) 
Homo sapiens

>  <Target Type>  (408) 
SINGLE PROTEIN

>  <Document ChEMBL ID>  (408) 
CHEMBL3638907

>  <Source Description>  (408) 
BindingDB Database

>  <Document Journal>  (408) 
nan

>  <Document Year>  (408) 
2014.0

>  <Active>  (408) 
1.0

>  <bits>  (408) 
<rdkit.DataStructs.cDataStructs.ExplicitBitVect object at 0x00000159F78D1A80>

>  <Group>  (408) 
G2

$$$$

     RDKit          2D

 33 37  0  0  0  0  0  0  0  0999 V2000
   -8.6583   -6.5105    0.0000 C   0  0  0  0  0  0  0  0  0  0  0  0
   -7.2317   -6.0469    0.0000 C   0  0  0  0  0  0  0  0  0  0  0  0
   -6.9199   -4.5797    0.0000 C   0  0  0  0  0  0  0  0  0  0  0  0
   -5.4933   -4.1162    0.0000 C   0  0  0  0  0  0  0  0  0  0  0  0
   -4.3786   -5.1199    0.0000 C   0  0  0  0  0  0  0  0  0  0  0  0
   -2.9520   -4.6564    0.0000 N   0  0  0  0  0  0  0  0  0  0  0  0
   -2.6401   -3.1891    0.0000 C   0  0  0  0  0  0  0  0  0  0  0  0
   -3.7548   -2.1855    0.0000 O   0  0  0  0  0  0  0  0  0  0  0  0
   -1.2135   -2.7256    0.0000 C   0  0  0  0  0  0  0  0  0  0  0  0
   -0.0000   -3.6073    0.0000 C   0  0  0  0  0  0  0  0  0  0  0  0
    1.2135   -2.7256    0.0000 N   0  0  0  0  0  0  0  0  0  0  0  0
    0.7500   -1.2990    0.0000 N   0  0  0  0  0  0  0  0  0  0  0  0
    1.5000    0.0000    0.0000 C   0  0  0  0  0  0  0  0  0  0  0  0
    0.7500    1.2990    0.0000 C   0  0  0  0  0  0  0  0  0  0  0  0
   -0.7500    1.2990    0.0000 C   0  0  0  0  0  0  0  0  0  0  0  0
   -1.5000    2.5981    0.0000 N   0  0  0  0  0  0  0  0  0  0  0  0
   -2.9918    2.7549    0.0000 C   0  0  0  0  0  0  0  0  0  0  0  0
   -3.3037    4.2221    0.0000 C   0  0  0  0  0  0  0  0  0  0  0  0
   -2.0046    4.9721    0.0000 C   0  0  0  0  0  0  0  0  0  0  0  0
   -0.8899    3.9684    0.0000 C   0  0  0  0  0  0  0  0  0  0  0  0
    0.5773    4.2803    0.0000 C   0  0  0  0  0  0  0  0  0  0  0  0
    1.5810    3.1655    0.0000 C   0  0  0  0  0  0  0  0  0  0  0  0
    3.0482    3.4774    0.0000 C   0  0  0  0  0  0  0  0  0  0  0  0
    4.0519    2.3627    0.0000 F   0  0  0  0  0  0  0  0  0  0  0  0
    3.5118    4.9040    0.0000 C   0  0  0  0  0  0  0  0  0  0  0  0
    2.5081    6.0187    0.0000 N   0  0  0  0  0  0  0  0  0  0  0  0
    2.9716    7.4453    0.0000 C   0  0  0  0  0  0  0  0  0  0  0  0
    1.0409    5.7068    0.0000 C   0  0  0  0  0  0  0  0  0  0  0  0
    0.0372    6.8216    0.0000 O   0  0  0  0  0  0  0  0  0  0  0  0
   -1.5000    0.0000    0.0000 N   0  0  0  0  0  0  0  0  0  0  0  0
   -0.7500   -1.2990    0.0000 C   0  0  0  0  0  0  0  0  0  0  0  0
   -4.6904   -6.5871    0.0000 C   0  0  0  0  0  0  0  0  0  0  0  0
   -6.1170   -7.0506    0.0000 N   0  0  0  0  0  0  0  0  0  0  0  0
  1  2  1  0
  2  3  2  0
  3  4  1  0
  4  5  2  0
  5  6  1  0
  6  7  1  0
  7  8  2  0
  7  9  1  0
  9 10  1  0
 10 11  2  0
 11 12  1  0
 12 13  1  0
 13 14  2  0
 14 15  1  0
 15 16  1  0
 16 17  1  0
 17 18  1  0
 18 19  1  0
 19 20  1  0
 20 21  1  6
 21 22  2  0
 22 23  1  0
 23 24  1  0
 23 25  2  0
 25 26  1  0
 26 27  1  0
 26 28  1  0
 28 29  2  0
 15 30  2  0
 30 31  1  0
  5 32  1  0
 32 33  2  0
 33  2  1  0
 31  9  2  0
 31 12  1  0
 20 16  1  0
 28 21  1  0
M  END
>  <Compound_ID>  (409) 
CHEMBL3676091

>  <Molecule Name>  (409) 
nan

>  <Molecular Weight>  (409) 
447.47

>  <AlogP>  (409) 
2.86

>  <Smiles>  (409) 
Cc1ccc(NC(=O)c2cnn3ccc(N4CCC[C@@H]4c4cc(F)cn(C)c4=O)nc23)cn1

>  <Standard Type>  (409) 
IC50

>  <Standard Relation>  (409) 
'='

>  <Standard Units>  (409) 
nM

>  <Standard Value>  (409) 
15.9

>  <Assay ChEMBL ID>  (409) 
CHEMBL3887070

>  <Assay Description>  (409) 
ELISA Assay: An enzyme-linked immunosorbant assay (ELISA) was used to assess TrkA kinase activity in the presence of inhibitors. Immulon 4HBX 384-well microtiter plates (Thermo part #8755) were coated with a 0.025 mg/mL solution of poly (Glu, Ala, Tyr; 6:3:1; Sigma P3899). Various concentrations of test compound, 2.5 nM TrkA (Invitrogen Corp., histidine-tagged recombinant human TrkA, cytoplasmic domain), and 500 uM ATP were incubated for 25 minutes at ambient temperature in the coated plates while shaking The assay buffer consisted of 25 mM MOPS pH 7.5, 0.005% (v/v) Triton X-100 and 5 mM MgCl2. The reaction mixture was removed from the plate by washing with PBS containing 0.1% (v/v) Tween 20. The phosphorylated reaction product was detected using 0.2 ug/mL of a phosphotyrosine specific monoclonal antibody (clone PY20) conjugated to horseradish peroxidase in conjunction with the TMB Peroxidase Substrate System (KPL).

>  <BAO Format ID>  (409) 
BAO_0000357

>  <BAO Label>  (409) 
single protein format

>  <Assay Organism>  (409) 
None

>  <Target ChEMBL ID>  (409) 
CHEMBL2815

>  <Target Name>  (409) 
Nerve growth factor receptor Trk-A

>  <Target Organism>  (409) 
Homo sapiens

>  <Target Type>  (409) 
SINGLE PROTEIN

>  <Document ChEMBL ID>  (409) 
CHEMBL3638907

>  <Source Description>  (409) 
BindingDB Database

>  <Document Journal>  (409) 
nan

>  <Document Year>  (409) 
2014.0

>  <Active>  (409) 
1.0

>  <bits>  (409) 
<rdkit.DataStructs.cDataStructs.ExplicitBitVect object at 0x00000159F78D1380>

>  <Group>  (409) 
G2

$$$$

     RDKit          2D

 28 31  0  0  0  0  0  0  0  0999 V2000
   -3.7548   -2.1855    0.0000 O   0  0  0  0  0  0  0  0  0  0  0  0
   -2.6401   -3.1891    0.0000 C   0  0  0  0  0  0  0  0  0  0  0  0
   -2.9520   -4.6564    0.0000 N   0  0  0  0  0  0  0  0  0  0  0  0
   -4.3786   -5.1199    0.0000 C   0  0  0  0  0  0  0  0  0  0  0  0
   -4.6904   -6.5871    0.0000 C   0  0  0  0  0  0  0  0  0  0  0  0
   -6.1170   -7.0506    0.0000 O   0  0  0  0  0  0  0  0  0  0  0  0
   -1.2135   -2.7256    0.0000 C   0  0  0  0  0  0  0  0  0  0  0  0
   -0.0000   -3.6073    0.0000 C   0  0  0  0  0  0  0  0  0  0  0  0
    1.2135   -2.7256    0.0000 N   0  0  0  0  0  0  0  0  0  0  0  0
    0.7500   -1.2990    0.0000 N   0  0  0  0  0  0  0  0  0  0  0  0
    1.5000    0.0000    0.0000 C   0  0  0  0  0  0  0  0  0  0  0  0
    0.7500    1.2990    0.0000 C   0  0  0  0  0  0  0  0  0  0  0  0
   -0.7500    1.2990    0.0000 C   0  0  0  0  0  0  0  0  0  0  0  0
   -1.5000    2.5981    0.0000 N   0  0  0  0  0  0  0  0  0  0  0  0
   -2.9918    2.7549    0.0000 C   0  0  0  0  0  0  0  0  0  0  0  0
   -3.3037    4.2221    0.0000 C   0  0  0  0  0  0  0  0  0  0  0  0
   -2.0046    4.9721    0.0000 C   0  0  0  0  0  0  0  0  0  0  0  0
   -0.8899    3.9684    0.0000 C   0  0  0  0  0  0  0  0  0  0  0  0
    0.5773    4.2803    0.0000 C   0  0  0  0  0  0  0  0  0  0  0  0
    1.5810    3.1655    0.0000 C   0  0  0  0  0  0  0  0  0  0  0  0
    3.0482    3.4774    0.0000 C   0  0  0  0  0  0  0  0  0  0  0  0
    4.0519    2.3627    0.0000 F   0  0  0  0  0  0  0  0  0  0  0  0
    3.5118    4.9040    0.0000 C   0  0  0  0  0  0  0  0  0  0  0  0
    2.5081    6.0187    0.0000 C   0  0  0  0  0  0  0  0  0  0  0  0
    1.0409    5.7068    0.0000 C   0  0  0  0  0  0  0  0  0  0  0  0
    0.0372    6.8216    0.0000 F   0  0  0  0  0  0  0  0  0  0  0  0
   -1.5000    0.0000    0.0000 N   0  0  0  0  0  0  0  0  0  0  0  0
   -0.7500   -1.2990    0.0000 C   0  0  0  0  0  0  0  0  0  0  0  0
  1  2  2  0
  2  3  1  0
  3  4  1  0
  4  5  1  0
  5  6  1  0
  2  7  1  0
  7  8  1  0
  8  9  2  0
  9 10  1  0
 10 11  1  0
 11 12  2  0
 12 13  1  0
 13 14  1  0
 14 15  1  0
 15 16  1  0
 16 17  1  0
 17 18  1  0
 18 19  1  0
 19 20  2  0
 20 21  1  0
 21 22  1  0
 21 23  2  0
 23 24  1  0
 24 25  2  0
 25 26  1  0
 13 27  2  0
 27 28  1  0
 28  7  2  0
 28 10  1  0
 18 14  1  0
 25 19  1  0
M  END
>  <Compound_ID>  (410) 
CHEMBL3676034

>  <Molecule Name>  (410) 
nan

>  <Molecular Weight>  (410) 
387.39

>  <AlogP>  (410) 
2.07

>  <Smiles>  (410) 
O=C(NCCO)c1cnn2ccc(N3CCCC3c3cc(F)ccc3F)nc12

>  <Standard Type>  (410) 
IC50

>  <Standard Relation>  (410) 
'='

>  <Standard Units>  (410) 
nM

>  <Standard Value>  (410) 
1.1

>  <Assay ChEMBL ID>  (410) 
CHEMBL3887070

>  <Assay Description>  (410) 
ELISA Assay: An enzyme-linked immunosorbant assay (ELISA) was used to assess TrkA kinase activity in the presence of inhibitors. Immulon 4HBX 384-well microtiter plates (Thermo part #8755) were coated with a 0.025 mg/mL solution of poly (Glu, Ala, Tyr; 6:3:1; Sigma P3899). Various concentrations of test compound, 2.5 nM TrkA (Invitrogen Corp., histidine-tagged recombinant human TrkA, cytoplasmic domain), and 500 uM ATP were incubated for 25 minutes at ambient temperature in the coated plates while shaking The assay buffer consisted of 25 mM MOPS pH 7.5, 0.005% (v/v) Triton X-100 and 5 mM MgCl2. The reaction mixture was removed from the plate by washing with PBS containing 0.1% (v/v) Tween 20. The phosphorylated reaction product was detected using 0.2 ug/mL of a phosphotyrosine specific monoclonal antibody (clone PY20) conjugated to horseradish peroxidase in conjunction with the TMB Peroxidase Substrate System (KPL).

>  <BAO Format ID>  (410) 
BAO_0000357

>  <BAO Label>  (410) 
single protein format

>  <Assay Organism>  (410) 
None

>  <Target ChEMBL ID>  (410) 
CHEMBL2815

>  <Target Name>  (410) 
Nerve growth factor receptor Trk-A

>  <Target Organism>  (410) 
Homo sapiens

>  <Target Type>  (410) 
SINGLE PROTEIN

>  <Document ChEMBL ID>  (410) 
CHEMBL3638907

>  <Source Description>  (410) 
BindingDB Database

>  <Document Journal>  (410) 
nan

>  <Document Year>  (410) 
2014.0

>  <Active>  (410) 
1.0

>  <bits>  (410) 
<rdkit.DataStructs.cDataStructs.ExplicitBitVect object at 0x00000159F78D0890>

>  <Group>  (410) 
G2

$$$$

     RDKit          2D

 29 32  0  0  0  0  0  0  0  0999 V2000
   -4.6904   -6.5871    0.0000 C   0  0  0  0  0  0  0  0  0  0  0  0
   -4.3786   -5.1199    0.0000 C   0  0  0  0  0  0  0  0  0  0  0  0
   -5.4933   -4.1162    0.0000 C   0  0  0  0  0  0  0  0  0  0  0  0
   -2.9520   -4.6564    0.0000 N   0  0  0  0  0  0  0  0  0  0  0  0
   -2.6401   -3.1891    0.0000 C   0  0  0  0  0  0  0  0  0  0  0  0
   -3.7548   -2.1855    0.0000 O   0  0  0  0  0  0  0  0  0  0  0  0
   -1.2135   -2.7256    0.0000 C   0  0  0  0  0  0  0  0  0  0  0  0
   -0.0000   -3.6073    0.0000 C   0  0  0  0  0  0  0  0  0  0  0  0
    1.2135   -2.7256    0.0000 N   0  0  0  0  0  0  0  0  0  0  0  0
    0.7500   -1.2990    0.0000 N   0  0  0  0  0  0  0  0  0  0  0  0
    1.5000    0.0000    0.0000 C   0  0  0  0  0  0  0  0  0  0  0  0
    0.7500    1.2990    0.0000 C   0  0  0  0  0  0  0  0  0  0  0  0
   -0.7500    1.2990    0.0000 C   0  0  0  0  0  0  0  0  0  0  0  0
   -1.5000    2.5981    0.0000 N   0  0  0  0  0  0  0  0  0  0  0  0
   -2.9918    2.7549    0.0000 C   0  0  0  0  0  0  0  0  0  0  0  0
   -3.3037    4.2221    0.0000 C   0  0  0  0  0  0  0  0  0  0  0  0
   -2.0046    4.9721    0.0000 C   0  0  0  0  0  0  0  0  0  0  0  0
   -0.8899    3.9684    0.0000 C   0  0  0  0  0  0  0  0  0  0  0  0
    0.5773    4.2803    0.0000 C   0  0  0  0  0  0  0  0  0  0  0  0
    1.5810    3.1655    0.0000 C   0  0  0  0  0  0  0  0  0  0  0  0
    3.0482    3.4774    0.0000 C   0  0  0  0  0  0  0  0  0  0  0  0
    4.0519    2.3627    0.0000 F   0  0  0  0  0  0  0  0  0  0  0  0
    3.5118    4.9040    0.0000 C   0  0  0  0  0  0  0  0  0  0  0  0
    2.5081    6.0187    0.0000 N   0  0  0  0  0  0  0  0  0  0  0  0
    2.9716    7.4453    0.0000 C   0  0  0  0  0  0  0  0  0  0  0  0
    1.0409    5.7068    0.0000 C   0  0  0  0  0  0  0  0  0  0  0  0
    0.0372    6.8216    0.0000 O   0  0  0  0  0  0  0  0  0  0  0  0
   -1.5000    0.0000    0.0000 N   0  0  0  0  0  0  0  0  0  0  0  0
   -0.7500   -1.2990    0.0000 C   0  0  0  0  0  0  0  0  0  0  0  0
  1  2  1  0
  2  3  1  0
  2  4  1  0
  4  5  1  0
  5  6  2  0
  5  7  1  0
  7  8  1  0
  8  9  2  0
  9 10  1  0
 10 11  1  0
 11 12  2  0
 12 13  1  0
 13 14  1  0
 14 15  1  0
 15 16  1  0
 16 17  1  0
 17 18  1  0
 18 19  1  6
 19 20  2  0
 20 21  1  0
 21 22  1  0
 21 23  2  0
 23 24  1  0
 24 25  1  0
 24 26  1  0
 26 27  2  0
 13 28  2  0
 28 29  1  0
 29  7  2  0
 29 10  1  0
 18 14  1  0
 26 19  1  0
M  END
>  <Compound_ID>  (411) 
CHEMBL3676089

>  <Molecule Name>  (411) 
nan

>  <Molecular Weight>  (411) 
398.44

>  <AlogP>  (411) 
2.05

>  <Smiles>  (411) 
CC(C)NC(=O)c1cnn2ccc(N3CCC[C@@H]3c3cc(F)cn(C)c3=O)nc12

>  <Standard Type>  (411) 
IC50

>  <Standard Relation>  (411) 
'='

>  <Standard Units>  (411) 
nM

>  <Standard Value>  (411) 
12.3

>  <Assay ChEMBL ID>  (411) 
CHEMBL3887070

>  <Assay Description>  (411) 
ELISA Assay: An enzyme-linked immunosorbant assay (ELISA) was used to assess TrkA kinase activity in the presence of inhibitors. Immulon 4HBX 384-well microtiter plates (Thermo part #8755) were coated with a 0.025 mg/mL solution of poly (Glu, Ala, Tyr; 6:3:1; Sigma P3899). Various concentrations of test compound, 2.5 nM TrkA (Invitrogen Corp., histidine-tagged recombinant human TrkA, cytoplasmic domain), and 500 uM ATP were incubated for 25 minutes at ambient temperature in the coated plates while shaking The assay buffer consisted of 25 mM MOPS pH 7.5, 0.005% (v/v) Triton X-100 and 5 mM MgCl2. The reaction mixture was removed from the plate by washing with PBS containing 0.1% (v/v) Tween 20. The phosphorylated reaction product was detected using 0.2 ug/mL of a phosphotyrosine specific monoclonal antibody (clone PY20) conjugated to horseradish peroxidase in conjunction with the TMB Peroxidase Substrate System (KPL).

>  <BAO Format ID>  (411) 
BAO_0000357

>  <BAO Label>  (411) 
single protein format

>  <Assay Organism>  (411) 
None

>  <Target ChEMBL ID>  (411) 
CHEMBL2815

>  <Target Name>  (411) 
Nerve growth factor receptor Trk-A

>  <Target Organism>  (411) 
Homo sapiens

>  <Target Type>  (411) 
SINGLE PROTEIN

>  <Document ChEMBL ID>  (411) 
CHEMBL3638907

>  <Source Description>  (411) 
BindingDB Database

>  <Document Journal>  (411) 
nan

>  <Document Year>  (411) 
2014.0

>  <Active>  (411) 
1.0

>  <bits>  (411) 
<rdkit.DataStructs.cDataStructs.ExplicitBitVect object at 0x00000159F78D19A0>

>  <Group>  (411) 
G2

$$$$

     RDKit          2D

 27 30  0  0  0  0  0  0  0  0999 V2000
    5.2500   -6.4952    0.0000 F   0  0  0  0  0  0  0  0  0  0  0  0
    3.7500   -6.4952    0.0000 C   0  0  0  0  0  0  0  0  0  0  0  0
    3.0000   -7.7942    0.0000 C   0  0  0  0  0  0  0  0  0  0  0  0
    1.5000   -7.7942    0.0000 C   0  0  0  0  0  0  0  0  0  0  0  0
    0.7500   -9.0933    0.0000 F   0  0  0  0  0  0  0  0  0  0  0  0
    0.7500   -6.4952    0.0000 C   0  0  0  0  0  0  0  0  0  0  0  0
    1.5000   -5.1962    0.0000 C   0  0  0  0  0  0  0  0  0  0  0  0
    0.7500   -3.8971    0.0000 C   0  0  0  0  0  0  0  0  0  0  0  0
    1.5000   -2.5981    0.0000 N   0  0  0  0  0  0  0  0  0  0  0  0
    0.7500   -1.2990    0.0000 C   0  0  0  0  0  0  0  0  0  0  0  0
    1.5000    0.0000    0.0000 C   0  0  0  0  0  0  0  0  0  0  0  0
    0.7500    1.2990    0.0000 C   0  0  0  0  0  0  0  0  0  0  0  0
   -0.7500    1.2990    0.0000 C   0  0  0  0  0  0  0  0  0  0  0  0
   -1.7537    2.4138    0.0000 N   0  0  0  0  0  0  0  0  0  0  0  0
   -3.1240    1.8037    0.0000 N   0  0  0  0  0  0  0  0  0  0  0  0
   -2.9672    0.3119    0.0000 C   0  0  0  0  0  0  0  0  0  0  0  0
   -4.0819   -0.6918    0.0000 C   0  0  0  0  0  0  0  0  0  0  0  0
   -5.5085   -0.2283    0.0000 C   0  0  0  0  0  0  0  0  0  0  0  0
   -6.6232   -1.2320    0.0000 C   0  0  0  0  0  0  0  0  0  0  0  0
   -8.0498   -0.7685    0.0000 C   0  0  0  0  0  0  0  0  0  0  0  0
   -9.1645   -1.7722    0.0000 C   0  0  0  0  0  0  0  0  0  0  0  0
   -8.8527   -3.2394    0.0000 C   0  0  0  0  0  0  0  0  0  0  0  0
   -7.4261   -3.7029    0.0000 C   0  0  0  0  0  0  0  0  0  0  0  0
   -6.3114   -2.6992    0.0000 N   0  0  0  0  0  0  0  0  0  0  0  0
   -1.5000    0.0000    0.0000 C   0  0  0  0  0  0  0  0  0  0  0  0
   -0.7500   -1.2990    0.0000 C   0  0  0  0  0  0  0  0  0  0  0  0
    3.0000   -5.1962    0.0000 C   0  0  0  0  0  0  0  0  0  0  0  0
  1  2  1  0
  2  3  2  0
  3  4  1  0
  4  5  1  0
  4  6  2  0
  6  7  1  0
  7  8  1  0
  8  9  1  0
  9 10  1  0
 10 11  2  0
 11 12  1  0
 12 13  2  0
 13 14  1  0
 14 15  1  0
 15 16  2  0
 16 17  1  0
 17 18  2  0
 18 19  1  0
 19 20  2  0
 20 21  1  0
 21 22  2  0
 22 23  1  0
 23 24  2  0
 16 25  1  0
 25 26  2  0
  7 27  2  0
 27  2  1  0
 26 10  1  0
 25 13  1  0
 24 19  1  0
M  END
>  <Compound_ID>  (412) 
CHEMBL4785469

>  <Molecule Name>  (412) 
nan

>  <Molecular Weight>  (412) 
362.38

>  <AlogP>  (412) 
5.02

>  <Smiles>  (412) 
Fc1cc(F)cc(CNc2ccc3[nH]nc(/C=C/c4ccccn4)c3c2)c1

>  <Standard Type>  (412) 
IC50

>  <Standard Relation>  (412) 
'='

>  <Standard Units>  (412) 
nM

>  <Standard Value>  (412) 
1.5

>  <Assay ChEMBL ID>  (412) 
CHEMBL4772612

>  <Assay Description>  (412) 
Inhibition of TrkA (unknown origin) using Tyr1 peptide as substrate in presence of ATP measured after 2 hrs by FRET-based Z-Lyte kinase assay

>  <BAO Format ID>  (412) 
BAO_0000357

>  <BAO Label>  (412) 
single protein format

>  <Assay Organism>  (412) 
Homo sapiens

>  <Target ChEMBL ID>  (412) 
CHEMBL2815

>  <Target Name>  (412) 
Nerve growth factor receptor Trk-A

>  <Target Organism>  (412) 
Homo sapiens

>  <Target Type>  (412) 
SINGLE PROTEIN

>  <Document ChEMBL ID>  (412) 
CHEMBL4765391

>  <Source Description>  (412) 
Scientific Literature

>  <Document Journal>  (412) 
Eur J Med Chem

>  <Document Year>  (412) 
2020.0

>  <Active>  (412) 
1.0

>  <bits>  (412) 
<rdkit.DataStructs.cDataStructs.ExplicitBitVect object at 0x00000159F78D3ED0>

>  <Group>  (412) 
G2

$$$$

     RDKit          2D

 38 43  0  0  0  0  0  0  0  0999 V2000
  -11.1996   -5.9703    0.0000 C   0  0  0  0  0  0  0  0  0  0  0  0
   -9.7730   -5.5068    0.0000 O   0  0  0  0  0  0  0  0  0  0  0  0
   -9.4612   -4.0396    0.0000 C   0  0  0  0  0  0  0  0  0  0  0  0
   -8.0346   -3.5760    0.0000 C   0  0  0  0  0  0  0  0  0  0  0  0
   -7.7227   -2.1088    0.0000 C   0  0  0  0  0  0  0  0  0  0  0  0
   -8.8374   -1.1051    0.0000 C   0  0  0  0  0  0  0  0  0  0  0  0
   -8.5256    0.3621    0.0000 C   0  0  0  0  0  0  0  0  0  0  0  0
   -7.0990    0.8256    0.0000 O   0  0  0  0  0  0  0  0  0  0  0  0
   -5.9843   -0.1781    0.0000 C   0  0  0  0  0  0  0  0  0  0  0  0
   -6.2961   -1.6453    0.0000 C   0  0  0  0  0  0  0  0  0  0  0  0
   -5.1814   -2.6490    0.0000 C   0  0  0  0  0  0  0  0  0  0  0  0
   -3.7548   -2.1855    0.0000 C   0  0  0  0  0  0  0  0  0  0  0  0
   -2.6401   -3.1891    0.0000 C   0  0  0  0  0  0  0  0  0  0  0  0
   -1.2135   -2.7256    0.0000 N   0  0  0  0  0  0  0  0  0  0  0  0
   -0.0000   -3.6073    0.0000 C   0  0  0  0  0  0  0  0  0  0  0  0
    0.0000   -5.1073    0.0000 N   0  0  0  0  0  0  0  0  0  0  0  0
    1.2135   -2.7256    0.0000 N   0  0  0  0  0  0  0  0  0  0  0  0
    0.7500   -1.2990    0.0000 C   0  0  0  0  0  0  0  0  0  0  0  0
    1.5000    0.0000    0.0000 C   0  0  0  0  0  0  0  0  0  0  0  0
    0.7500    1.2990    0.0000 C   0  0  0  0  0  0  0  0  0  0  0  0
    1.5000    2.5981    0.0000 C   0  0  0  0  0  0  0  0  0  0  0  0
    0.8899    3.9684    0.0000 C   0  0  0  0  0  0  0  0  0  0  0  0
    2.0046    4.9721    0.0000 N   0  0  0  0  0  0  0  0  0  0  0  0
    3.3037    4.2221    0.0000 N   0  0  0  0  0  0  0  0  0  0  0  0
    4.6740    4.8322    0.0000 C   0  0  0  0  0  0  0  0  0  0  0  0
    2.9918    2.7549    0.0000 C   0  0  0  0  0  0  0  0  0  0  0  0
   -0.7500    1.2990    0.0000 C   0  0  0  0  0  0  0  0  0  0  0  0
   -1.5000    0.0000    0.0000 N   0  0  0  0  0  0  0  0  0  0  0  0
   -0.7500   -1.2990    0.0000 C   0  0  0  0  0  0  0  0  0  0  0  0
   -3.4430   -0.7182    0.0000 C   0  0  0  0  0  0  0  0  0  0  0  0
   -4.5577    0.2855    0.0000 C   0  0  0  0  0  0  0  0  0  0  0  0
   -4.2458    1.7527    0.0000 O   0  0  0  0  0  0  0  0  0  0  0  0
   -5.3605    2.7564    0.0000 C   0  0  0  0  0  0  0  0  0  0  0  0
   -9.6403    1.3658    0.0000 C   0  0  0  0  0  0  0  0  0  0  0  0
  -10.1038    2.7924    0.0000 C   0  0  0  0  0  0  0  0  0  0  0  0
  -11.1075    1.6777    0.0000 C   0  0  0  0  0  0  0  0  0  0  0  0
  -10.2640   -1.5686    0.0000 C   0  0  0  0  0  0  0  0  0  0  0  0
  -10.5759   -3.0359    0.0000 N   0  0  0  0  0  0  0  0  0  0  0  0
  1  2  1  0
  2  3  1  0
  3  4  2  0
  4  5  1  0
  5  6  2  0
  6  7  1  0
  7  8  1  0
  8  9  1  0
  9 10  2  0
 10 11  1  0
 11 12  2  0
 12 13  1  0
 13 14  1  0
 14 15  1  0
 15 16  1  0
 15 17  2  0
 17 18  1  0
 18 19  2  0
 19 20  1  0
 20 21  1  0
 21 22  1  0
 22 23  2  0
 23 24  1  0
 24 25  1  0
 24 26  1  0
 20 27  2  0
 27 28  1  0
 28 29  2  0
 12 30  1  0
 30 31  2  0
 31 32  1  0
 32 33  1  0
  7 34  1  0
 34 35  1  0
 35 36  1  0
  6 37  1  0
 37 38  2  0
 38  3  1  0
 31  9  1  0
 36 34  1  0
 29 14  1  0
 29 18  1  0
 26 21  2  0
M  END
>  <Compound_ID>  (413) 
CHEMBL3678290

>  <Molecule Name>  (413) 
nan

>  <Molecular Weight>  (413) 
511.59

>  <AlogP>  (413) 
4.4

>  <Smiles>  (413) 
COc1ccc(C(Oc2ccc(Cn3c(N)nc4cc(-c5cnn(C)c5)cnc43)cc2OC)C2CC2)cn1

>  <Standard Type>  (413) 
IC50

>  <Standard Relation>  (413) 
'='

>  <Standard Units>  (413) 
nM

>  <Standard Value>  (413) 
58.0

>  <Assay ChEMBL ID>  (413) 
CHEMBL3887112

>  <Assay Description>  (413) 
Inhibition Assay: Reagents and consumables were purchased from Sigma Aldrich, Carna Biosciences, or Caliper Life Sciences. All assay reaction conditions for IC50 determinations were within the linear range with respect to time and enzyme concentration. In a 384 well polypropylene plate, TrkA (0.4 nM, Carna 08-186) was pre-incubated in a 100 mM Hepes-NaOH pH 7.5 buffer containing 0.01% Triton X-100, 10 mM MgCl2, 0.1% BSA, 1 mM DTT, 10 uM sodium orthovanadate and 10 uM beta-glycerophosphate and compound with a concentration of 2.5% DMSO for 15 minutes at room temperature. The reaction was initiated with an equal volume of peptide substrate (Caliper Life Sciences catalog no. 760430) and ATP in the aforementioned buffer. The final concentrations in the reaction were 200 pM TrkA, 1.5 uM peptide substrate and 55 uM ATP (ATP Km). The reaction was incubated at room temperature for 180 minutes and terminated with a buffer containing excess EDTA (100 mM Hepes-NaOH pH 7.5, 0.02% Brij.

>  <BAO Format ID>  (413) 
BAO_0000357

>  <BAO Label>  (413) 
single protein format

>  <Assay Organism>  (413) 
None

>  <Target ChEMBL ID>  (413) 
CHEMBL2815

>  <Target Name>  (413) 
Nerve growth factor receptor Trk-A

>  <Target Organism>  (413) 
Homo sapiens

>  <Target Type>  (413) 
SINGLE PROTEIN

>  <Document ChEMBL ID>  (413) 
CHEMBL3638818

>  <Source Description>  (413) 
BindingDB Database

>  <Document Journal>  (413) 
nan

>  <Document Year>  (413) 
2015.0

>  <Active>  (413) 
1.0

>  <bits>  (413) 
<rdkit.DataStructs.cDataStructs.ExplicitBitVect object at 0x00000159F78D3A00>

>  <Group>  (413) 
G2

$$$$

     RDKit          2D

 34 37  0  0  0  0  0  0  0  0999 V2000
   -3.9150   -6.5465    0.0000 C   0  0  0  0  0  0  0  0  0  0  0  0
   -4.3786   -5.1199    0.0000 C   0  0  0  0  0  0  0  0  0  0  0  0
   -4.8421   -3.6933    0.0000 C   0  0  0  0  0  0  0  0  0  0  0  0
   -5.8051   -5.5834    0.0000 C   0  0  0  0  0  0  0  0  0  0  0  0
   -6.9199   -4.5797    0.0000 N   0  0  0  0  0  0  0  0  0  0  0  0
   -8.3464   -5.0433    0.0000 S   0  0  0  0  0  0  0  0  0  0  0  0
   -9.7730   -5.5068    0.0000 C   0  0  0  0  0  0  0  0  0  0  0  0
   -7.8829   -6.4698    0.0000 O   0  0  0  0  0  0  0  0  0  0  0  0
   -8.8100   -3.6167    0.0000 O   0  0  0  0  0  0  0  0  0  0  0  0
   -2.9520   -4.6564    0.0000 N   0  0  0  0  0  0  0  0  0  0  0  0
   -2.6401   -3.1891    0.0000 C   0  0  0  0  0  0  0  0  0  0  0  0
   -3.7548   -2.1855    0.0000 O   0  0  0  0  0  0  0  0  0  0  0  0
   -1.2135   -2.7256    0.0000 C   0  0  0  0  0  0  0  0  0  0  0  0
   -0.0000   -3.6073    0.0000 C   0  0  0  0  0  0  0  0  0  0  0  0
    1.2135   -2.7256    0.0000 N   0  0  0  0  0  0  0  0  0  0  0  0
    0.7500   -1.2990    0.0000 N   0  0  0  0  0  0  0  0  0  0  0  0
    1.5000    0.0000    0.0000 C   0  0  0  0  0  0  0  0  0  0  0  0
    0.7500    1.2990    0.0000 C   0  0  0  0  0  0  0  0  0  0  0  0
   -0.7500    1.2990    0.0000 C   0  0  0  0  0  0  0  0  0  0  0  0
   -1.5000    2.5981    0.0000 N   0  0  0  0  0  0  0  0  0  0  0  0
   -2.9918    2.7549    0.0000 C   0  0  0  0  0  0  0  0  0  0  0  0
   -3.3037    4.2221    0.0000 C   0  0  0  0  0  0  0  0  0  0  0  0
   -2.0046    4.9721    0.0000 C   0  0  0  0  0  0  0  0  0  0  0  0
   -0.8899    3.9684    0.0000 C   0  0  0  0  0  0  0  0  0  0  0  0
    0.5773    4.2803    0.0000 C   0  0  0  0  0  0  0  0  0  0  0  0
    1.5810    3.1655    0.0000 C   0  0  0  0  0  0  0  0  0  0  0  0
    3.0482    3.4774    0.0000 C   0  0  0  0  0  0  0  0  0  0  0  0
    4.0519    2.3627    0.0000 F   0  0  0  0  0  0  0  0  0  0  0  0
    3.5118    4.9040    0.0000 C   0  0  0  0  0  0  0  0  0  0  0  0
    2.5081    6.0187    0.0000 C   0  0  0  0  0  0  0  0  0  0  0  0
    1.0409    5.7068    0.0000 C   0  0  0  0  0  0  0  0  0  0  0  0
    0.0372    6.8216    0.0000 F   0  0  0  0  0  0  0  0  0  0  0  0
   -1.5000    0.0000    0.0000 N   0  0  0  0  0  0  0  0  0  0  0  0
   -0.7500   -1.2990    0.0000 C   0  0  0  0  0  0  0  0  0  0  0  0
  1  2  1  0
  2  3  1  0
  2  4  1  0
  4  5  1  0
  5  6  1  0
  6  7  1  0
  6  8  2  0
  6  9  2  0
  2 10  1  0
 10 11  1  0
 11 12  2  0
 11 13  1  0
 13 14  1  0
 14 15  2  0
 15 16  1  0
 16 17  1  0
 17 18  2  0
 18 19  1  0
 19 20  1  0
 20 21  1  0
 21 22  1  0
 22 23  1  0
 23 24  1  0
 24 25  1  0
 25 26  2  0
 26 27  1  0
 27 28  1  0
 27 29  2  0
 29 30  1  0
 30 31  2  0
 31 32  1  0
 19 33  2  0
 33 34  1  0
 34 13  2  0
 34 16  1  0
 24 20  1  0
 31 25  1  0
M  END
>  <Compound_ID>  (414) 
CHEMBL3675933

>  <Molecule Name>  (414) 
nan

>  <Molecular Weight>  (414) 
492.55

>  <AlogP>  (414) 
2.41

>  <Smiles>  (414) 
CC(C)(CNS(C)(=O)=O)NC(=O)c1cnn2ccc(N3CCCC3c3cc(F)ccc3F)nc12

>  <Standard Type>  (414) 
IC50

>  <Standard Relation>  (414) 
'='

>  <Standard Units>  (414) 
nM

>  <Standard Value>  (414) 
3.93

>  <Assay ChEMBL ID>  (414) 
CHEMBL3887070

>  <Assay Description>  (414) 
ELISA Assay: An enzyme-linked immunosorbant assay (ELISA) was used to assess TrkA kinase activity in the presence of inhibitors. Immulon 4HBX 384-well microtiter plates (Thermo part #8755) were coated with a 0.025 mg/mL solution of poly (Glu, Ala, Tyr; 6:3:1; Sigma P3899). Various concentrations of test compound, 2.5 nM TrkA (Invitrogen Corp., histidine-tagged recombinant human TrkA, cytoplasmic domain), and 500 uM ATP were incubated for 25 minutes at ambient temperature in the coated plates while shaking The assay buffer consisted of 25 mM MOPS pH 7.5, 0.005% (v/v) Triton X-100 and 5 mM MgCl2. The reaction mixture was removed from the plate by washing with PBS containing 0.1% (v/v) Tween 20. The phosphorylated reaction product was detected using 0.2 ug/mL of a phosphotyrosine specific monoclonal antibody (clone PY20) conjugated to horseradish peroxidase in conjunction with the TMB Peroxidase Substrate System (KPL).

>  <BAO Format ID>  (414) 
BAO_0000357

>  <BAO Label>  (414) 
single protein format

>  <Assay Organism>  (414) 
None

>  <Target ChEMBL ID>  (414) 
CHEMBL2815

>  <Target Name>  (414) 
Nerve growth factor receptor Trk-A

>  <Target Organism>  (414) 
Homo sapiens

>  <Target Type>  (414) 
SINGLE PROTEIN

>  <Document ChEMBL ID>  (414) 
CHEMBL3638907

>  <Source Description>  (414) 
BindingDB Database

>  <Document Journal>  (414) 
nan

>  <Document Year>  (414) 
2014.0

>  <Active>  (414) 
1.0

>  <bits>  (414) 
<rdkit.DataStructs.cDataStructs.ExplicitBitVect object at 0x00000159F78D0F90>

>  <Group>  (414) 
G2

$$$$

     RDKit          2D

 26 29  0  0  0  0  0  0  0  0999 V2000
    3.7500   -3.8971    0.0000 F   0  0  0  0  0  0  0  0  0  0  0  0
    3.0000   -5.1962    0.0000 C   0  0  0  0  0  0  0  0  0  0  0  0
    3.7500   -6.4952    0.0000 C   0  0  0  0  0  0  0  0  0  0  0  0
    3.0000   -7.7942    0.0000 C   0  0  0  0  0  0  0  0  0  0  0  0
    1.5000   -7.7942    0.0000 C   0  0  0  0  0  0  0  0  0  0  0  0
    0.7500   -6.4952    0.0000 C   0  0  0  0  0  0  0  0  0  0  0  0
    1.5000   -5.1962    0.0000 C   0  0  0  0  0  0  0  0  0  0  0  0
    0.7500   -3.8971    0.0000 C   0  0  0  0  0  0  0  0  0  0  0  0
    1.5000   -2.5981    0.0000 N   0  0  0  0  0  0  0  0  0  0  0  0
    0.7500   -1.2990    0.0000 C   0  0  0  0  0  0  0  0  0  0  0  0
    1.5000    0.0000    0.0000 C   0  0  0  0  0  0  0  0  0  0  0  0
    0.7500    1.2990    0.0000 C   0  0  0  0  0  0  0  0  0  0  0  0
   -0.7500    1.2990    0.0000 C   0  0  0  0  0  0  0  0  0  0  0  0
   -1.7537    2.4138    0.0000 N   0  0  0  0  0  0  0  0  0  0  0  0
   -3.1240    1.8037    0.0000 N   0  0  0  0  0  0  0  0  0  0  0  0
   -2.9672    0.3119    0.0000 C   0  0  0  0  0  0  0  0  0  0  0  0
   -4.0819   -0.6918    0.0000 C   0  0  0  0  0  0  0  0  0  0  0  0
   -5.5085   -0.2283    0.0000 C   0  0  0  0  0  0  0  0  0  0  0  0
   -6.6232   -1.2320    0.0000 C   0  0  0  0  0  0  0  0  0  0  0  0
   -8.0498   -0.7685    0.0000 C   0  0  0  0  0  0  0  0  0  0  0  0
   -9.1645   -1.7722    0.0000 C   0  0  0  0  0  0  0  0  0  0  0  0
   -8.8527   -3.2394    0.0000 C   0  0  0  0  0  0  0  0  0  0  0  0
   -7.4261   -3.7029    0.0000 C   0  0  0  0  0  0  0  0  0  0  0  0
   -6.3114   -2.6992    0.0000 N   0  0  0  0  0  0  0  0  0  0  0  0
   -1.5000    0.0000    0.0000 C   0  0  0  0  0  0  0  0  0  0  0  0
   -0.7500   -1.2990    0.0000 C   0  0  0  0  0  0  0  0  0  0  0  0
  1  2  1  0
  2  3  2  0
  3  4  1  0
  4  5  2  0
  5  6  1  0
  6  7  2  0
  7  8  1  0
  8  9  1  0
  9 10  1  0
 10 11  2  0
 11 12  1  0
 12 13  2  0
 13 14  1  0
 14 15  1  0
 15 16  2  0
 16 17  1  0
 17 18  2  0
 18 19  1  0
 19 20  2  0
 20 21  1  0
 21 22  2  0
 22 23  1  0
 23 24  2  0
 16 25  1  0
 25 26  2  0
  7  2  1  0
 26 10  1  0
 25 13  1  0
 24 19  1  0
M  END
>  <Compound_ID>  (415) 
CHEMBL4783102

>  <Molecule Name>  (415) 
nan

>  <Molecular Weight>  (415) 
344.39

>  <AlogP>  (415) 
4.88

>  <Smiles>  (415) 
Fc1ccccc1CNc1ccc2[nH]nc(/C=C/c3ccccn3)c2c1

>  <Standard Type>  (415) 
IC50

>  <Standard Relation>  (415) 
'='

>  <Standard Units>  (415) 
nM

>  <Standard Value>  (415) 
8.8

>  <Assay ChEMBL ID>  (415) 
CHEMBL4772612

>  <Assay Description>  (415) 
Inhibition of TrkA (unknown origin) using Tyr1 peptide as substrate in presence of ATP measured after 2 hrs by FRET-based Z-Lyte kinase assay

>  <BAO Format ID>  (415) 
BAO_0000357

>  <BAO Label>  (415) 
single protein format

>  <Assay Organism>  (415) 
Homo sapiens

>  <Target ChEMBL ID>  (415) 
CHEMBL2815

>  <Target Name>  (415) 
Nerve growth factor receptor Trk-A

>  <Target Organism>  (415) 
Homo sapiens

>  <Target Type>  (415) 
SINGLE PROTEIN

>  <Document ChEMBL ID>  (415) 
CHEMBL4765391

>  <Source Description>  (415) 
Scientific Literature

>  <Document Journal>  (415) 
Eur J Med Chem

>  <Document Year>  (415) 
2020.0

>  <Active>  (415) 
1.0

>  <bits>  (415) 
<rdkit.DataStructs.cDataStructs.ExplicitBitVect object at 0x00000159F78D2AB0>

>  <Group>  (415) 
G2

$$$$

     RDKit          2D

 39 44  0  0  0  0  0  0  0  0999 V2000
   -7.9882  -15.8540    0.0000 C   0  0  0  0  0  0  0  0  0  0  0  0
   -6.5616  -15.3904    0.0000 O   0  0  0  0  0  0  0  0  0  0  0  0
   -6.2498  -13.9232    0.0000 C   0  0  0  0  0  0  0  0  0  0  0  0
   -7.3645  -12.9195    0.0000 C   0  0  0  0  0  0  0  0  0  0  0  0
   -7.0526  -11.4523    0.0000 C   0  0  0  0  0  0  0  0  0  0  0  0
   -5.6260  -10.9888    0.0000 C   0  0  0  0  0  0  0  0  0  0  0  0
   -5.3142   -9.5216    0.0000 C   0  0  0  0  0  0  0  0  0  0  0  0
   -3.8876   -9.0580    0.0000 O   0  0  0  0  0  0  0  0  0  0  0  0
   -3.5757   -7.5908    0.0000 C   0  0  0  0  0  0  0  0  0  0  0  0
   -2.1491   -7.1273    0.0000 C   0  0  0  0  0  0  0  0  0  0  0  0
   -1.8373   -5.6601    0.0000 C   0  0  0  0  0  0  0  0  0  0  0  0
   -2.9520   -4.6564    0.0000 C   0  0  0  0  0  0  0  0  0  0  0  0
   -2.6401   -3.1891    0.0000 C   0  0  0  0  0  0  0  0  0  0  0  0
   -1.2135   -2.7256    0.0000 N   0  0  0  0  0  0  0  0  0  0  0  0
   -0.0000   -3.6073    0.0000 C   0  0  0  0  0  0  0  0  0  0  0  0
    1.2135   -2.7256    0.0000 N   0  0  0  0  0  0  0  0  0  0  0  0
    0.7500   -1.2990    0.0000 C   0  0  0  0  0  0  0  0  0  0  0  0
    1.5000    0.0000    0.0000 C   0  0  0  0  0  0  0  0  0  0  0  0
    0.7500    1.2990    0.0000 C   0  0  0  0  0  0  0  0  0  0  0  0
    1.5000    2.5981    0.0000 C   0  0  0  0  0  0  0  0  0  0  0  0
    0.8899    3.9684    0.0000 N   0  0  0  0  0  0  0  0  0  0  0  0
    2.0046    4.9721    0.0000 N   0  0  0  0  0  0  0  0  0  0  0  0
    3.3037    4.2221    0.0000 C   0  0  0  0  0  0  0  0  0  0  0  0
    4.6740    4.8322    0.0000 C   0  0  0  0  0  0  0  0  0  0  0  0
    5.8875    3.9505    0.0000 C   0  0  0  0  0  0  0  0  0  0  0  0
    7.2578    4.5606    0.0000 C   0  0  0  0  0  0  0  0  0  0  0  0
    7.4146    6.0524    0.0000 N   0  0  0  0  0  0  0  0  0  0  0  0
    6.2011    6.9341    0.0000 C   0  0  0  0  0  0  0  0  0  0  0  0
    4.8308    6.3240    0.0000 C   0  0  0  0  0  0  0  0  0  0  0  0
    2.9918    2.7549    0.0000 O   0  0  0  0  0  0  0  0  0  0  0  0
   -0.7500    1.2990    0.0000 C   0  0  0  0  0  0  0  0  0  0  0  0
   -1.5000    0.0000    0.0000 N   0  0  0  0  0  0  0  0  0  0  0  0
   -0.7500   -1.2990    0.0000 C   0  0  0  0  0  0  0  0  0  0  0  0
   -4.3786   -5.1199    0.0000 C   0  0  0  0  0  0  0  0  0  0  0  0
   -4.6904   -6.5871    0.0000 C   0  0  0  0  0  0  0  0  0  0  0  0
   -6.1170   -7.0506    0.0000 O   0  0  0  0  0  0  0  0  0  0  0  0
   -7.2317   -6.0469    0.0000 C   0  0  0  0  0  0  0  0  0  0  0  0
   -4.5113  -11.9925    0.0000 C   0  0  0  0  0  0  0  0  0  0  0  0
   -4.8232  -13.4597    0.0000 N   0  0  0  0  0  0  0  0  0  0  0  0
  1  2  1  0
  2  3  1  0
  3  4  2  0
  4  5  1  0
  5  6  2  0
  6  7  1  0
  7  8  1  0
  8  9  1  0
  9 10  2  0
 10 11  1  0
 11 12  2  0
 12 13  1  0
 13 14  1  0
 14 15  1  0
 15 16  2  0
 16 17  1  0
 17 18  2  0
 18 19  1  0
 19 20  1  0
 20 21  2  0
 21 22  1  0
 22 23  2  0
 23 24  1  0
 24 25  1  0
 25 26  1  0
 26 27  1  0
 27 28  1  0
 28 29  1  0
 23 30  1  0
 19 31  2  0
 31 32  1  0
 32 33  2  0
 12 34  1  0
 34 35  2  0
 35 36  1  0
 36 37  1  0
  6 38  1  0
 38 39  2  0
 39  3  1  0
 35  9  1  0
 33 14  1  0
 33 17  1  0
 30 20  1  0
 29 24  1  0
M  END
>  <Compound_ID>  (416) 
CHEMBL3673466

>  <Molecule Name>  (416) 
nan

>  <Molecular Weight>  (416) 
527.59

>  <AlogP>  (416) 
3.99

>  <Smiles>  (416) 
COc1ccc(COc2ccc(Cn3cnc4cc(-c5nnc(C6CCNCC6)o5)cnc43)cc2OC)cn1

>  <Standard Type>  (416) 
IC50

>  <Standard Relation>  (416) 
'='

>  <Standard Units>  (416) 
nM

>  <Standard Value>  (416) 
51.0

>  <Assay ChEMBL ID>  (416) 
CHEMBL3887112

>  <Assay Description>  (416) 
Inhibition Assay: Reagents and consumables were purchased from Sigma Aldrich, Carna Biosciences, or Caliper Life Sciences. All assay reaction conditions for IC50 determinations were within the linear range with respect to time and enzyme concentration. In a 384 well polypropylene plate, TrkA (0.4 nM, Carna 08-186) was pre-incubated in a 100 mM Hepes-NaOH pH 7.5 buffer containing 0.01% Triton X-100, 10 mM MgCl2, 0.1% BSA, 1 mM DTT, 10 uM sodium orthovanadate and 10 uM beta-glycerophosphate and compound with a concentration of 2.5% DMSO for 15 minutes at room temperature. The reaction was initiated with an equal volume of peptide substrate (Caliper Life Sciences catalog no. 760430) and ATP in the aforementioned buffer. The final concentrations in the reaction were 200 pM TrkA, 1.5 uM peptide substrate and 55 uM ATP (ATP Km). The reaction was incubated at room temperature for 180 minutes and terminated with a buffer containing excess EDTA (100 mM Hepes-NaOH pH 7.5, 0.02% Brij.

>  <BAO Format ID>  (416) 
BAO_0000357

>  <BAO Label>  (416) 
single protein format

>  <Assay Organism>  (416) 
None

>  <Target ChEMBL ID>  (416) 
CHEMBL2815

>  <Target Name>  (416) 
Nerve growth factor receptor Trk-A

>  <Target Organism>  (416) 
Homo sapiens

>  <Target Type>  (416) 
SINGLE PROTEIN

>  <Document ChEMBL ID>  (416) 
CHEMBL3638818

>  <Source Description>  (416) 
BindingDB Database

>  <Document Journal>  (416) 
nan

>  <Document Year>  (416) 
2015.0

>  <Active>  (416) 
1.0

>  <bits>  (416) 
<rdkit.DataStructs.cDataStructs.ExplicitBitVect object at 0x00000159F78D26C0>

>  <Group>  (416) 
G2

$$$$

     RDKit          2D

 39 44  0  0  0  0  0  0  0  0999 V2000
   -7.9882  -15.8540    0.0000 C   0  0  0  0  0  0  0  0  0  0  0  0
   -6.5616  -15.3904    0.0000 O   0  0  0  0  0  0  0  0  0  0  0  0
   -6.2498  -13.9232    0.0000 C   0  0  0  0  0  0  0  0  0  0  0  0
   -7.3645  -12.9195    0.0000 C   0  0  0  0  0  0  0  0  0  0  0  0
   -7.0526  -11.4523    0.0000 C   0  0  0  0  0  0  0  0  0  0  0  0
   -5.6260  -10.9888    0.0000 C   0  0  0  0  0  0  0  0  0  0  0  0
   -5.3142   -9.5216    0.0000 C   0  0  0  0  0  0  0  0  0  0  0  0
   -3.8876   -9.0580    0.0000 O   0  0  0  0  0  0  0  0  0  0  0  0
   -3.5757   -7.5908    0.0000 C   0  0  0  0  0  0  0  0  0  0  0  0
   -2.1491   -7.1273    0.0000 C   0  0  0  0  0  0  0  0  0  0  0  0
   -1.8373   -5.6601    0.0000 C   0  0  0  0  0  0  0  0  0  0  0  0
   -2.9520   -4.6564    0.0000 C   0  0  0  0  0  0  0  0  0  0  0  0
   -2.6401   -3.1891    0.0000 C   0  0  0  0  0  0  0  0  0  0  0  0
   -1.2135   -2.7256    0.0000 N   0  0  0  0  0  0  0  0  0  0  0  0
   -0.0000   -3.6073    0.0000 C   0  0  0  0  0  0  0  0  0  0  0  0
    1.2135   -2.7256    0.0000 N   0  0  0  0  0  0  0  0  0  0  0  0
    0.7500   -1.2990    0.0000 C   0  0  0  0  0  0  0  0  0  0  0  0
    1.5000    0.0000    0.0000 C   0  0  0  0  0  0  0  0  0  0  0  0
    0.7500    1.2990    0.0000 C   0  0  0  0  0  0  0  0  0  0  0  0
    1.5000    2.5981    0.0000 C   0  0  0  0  0  0  0  0  0  0  0  0
    0.8899    3.9684    0.0000 C   0  0  0  0  0  0  0  0  0  0  0  0
    2.0046    4.9721    0.0000 N   0  0  0  0  0  0  0  0  0  0  0  0
    3.3037    4.2221    0.0000 N   0  0  0  0  0  0  0  0  0  0  0  0
    4.6740    4.8322    0.0000 C   0  0  0  0  0  0  0  0  0  0  0  0
    5.8875    3.9505    0.0000 C   0  0  0  0  0  0  0  0  0  0  0  0
    7.2578    4.5606    0.0000 C   0  0  0  0  0  0  0  0  0  0  0  0
    7.4146    6.0524    0.0000 N   0  0  0  0  0  0  0  0  0  0  0  0
    6.2011    6.9341    0.0000 C   0  0  0  0  0  0  0  0  0  0  0  0
    4.8308    6.3240    0.0000 C   0  0  0  0  0  0  0  0  0  0  0  0
    2.9918    2.7549    0.0000 C   0  0  0  0  0  0  0  0  0  0  0  0
   -0.7500    1.2990    0.0000 C   0  0  0  0  0  0  0  0  0  0  0  0
   -1.5000    0.0000    0.0000 N   0  0  0  0  0  0  0  0  0  0  0  0
   -0.7500   -1.2990    0.0000 C   0  0  0  0  0  0  0  0  0  0  0  0
   -4.3786   -5.1199    0.0000 C   0  0  0  0  0  0  0  0  0  0  0  0
   -4.6904   -6.5871    0.0000 C   0  0  0  0  0  0  0  0  0  0  0  0
   -6.1170   -7.0506    0.0000 O   0  0  0  0  0  0  0  0  0  0  0  0
   -7.2317   -6.0469    0.0000 C   0  0  0  0  0  0  0  0  0  0  0  0
   -4.5113  -11.9925    0.0000 C   0  0  0  0  0  0  0  0  0  0  0  0
   -4.8232  -13.4597    0.0000 N   0  0  0  0  0  0  0  0  0  0  0  0
  1  2  1  0
  2  3  1  0
  3  4  2  0
  4  5  1  0
  5  6  2  0
  6  7  1  0
  7  8  1  0
  8  9  1  0
  9 10  2  0
 10 11  1  0
 11 12  2  0
 12 13  1  0
 13 14  1  0
 14 15  1  0
 15 16  2  0
 16 17  1  0
 17 18  2  0
 18 19  1  0
 19 20  1  0
 20 21  1  0
 21 22  2  0
 22 23  1  0
 23 24  1  0
 24 25  1  0
 25 26  1  0
 26 27  1  0
 27 28  1  0
 28 29  1  0
 23 30  1  0
 19 31  2  0
 31 32  1  0
 32 33  2  0
 12 34  1  0
 34 35  2  0
 35 36  1  0
 36 37  1  0
  6 38  1  0
 38 39  2  0
 39  3  1  0
 35  9  1  0
 33 14  1  0
 33 17  1  0
 30 20  2  0
 29 24  1  0
M  END
>  <Compound_ID>  (417) 
CHEMBL3673462

>  <Molecule Name>  (417) 
nan

>  <Molecular Weight>  (417) 
525.61

>  <AlogP>  (417) 
4.26

>  <Smiles>  (417) 
COc1ccc(COc2ccc(Cn3cnc4cc(-c5cnn(C6CCNCC6)c5)cnc43)cc2OC)cn1

>  <Standard Type>  (417) 
IC50

>  <Standard Relation>  (417) 
'='

>  <Standard Units>  (417) 
nM

>  <Standard Value>  (417) 
1.0

>  <Assay ChEMBL ID>  (417) 
CHEMBL3887112

>  <Assay Description>  (417) 
Inhibition Assay: Reagents and consumables were purchased from Sigma Aldrich, Carna Biosciences, or Caliper Life Sciences. All assay reaction conditions for IC50 determinations were within the linear range with respect to time and enzyme concentration. In a 384 well polypropylene plate, TrkA (0.4 nM, Carna 08-186) was pre-incubated in a 100 mM Hepes-NaOH pH 7.5 buffer containing 0.01% Triton X-100, 10 mM MgCl2, 0.1% BSA, 1 mM DTT, 10 uM sodium orthovanadate and 10 uM beta-glycerophosphate and compound with a concentration of 2.5% DMSO for 15 minutes at room temperature. The reaction was initiated with an equal volume of peptide substrate (Caliper Life Sciences catalog no. 760430) and ATP in the aforementioned buffer. The final concentrations in the reaction were 200 pM TrkA, 1.5 uM peptide substrate and 55 uM ATP (ATP Km). The reaction was incubated at room temperature for 180 minutes and terminated with a buffer containing excess EDTA (100 mM Hepes-NaOH pH 7.5, 0.02% Brij.

>  <BAO Format ID>  (417) 
BAO_0000357

>  <BAO Label>  (417) 
single protein format

>  <Assay Organism>  (417) 
None

>  <Target ChEMBL ID>  (417) 
CHEMBL2815

>  <Target Name>  (417) 
Nerve growth factor receptor Trk-A

>  <Target Organism>  (417) 
Homo sapiens

>  <Target Type>  (417) 
SINGLE PROTEIN

>  <Document ChEMBL ID>  (417) 
CHEMBL3638818

>  <Source Description>  (417) 
BindingDB Database

>  <Document Journal>  (417) 
nan

>  <Document Year>  (417) 
2015.0

>  <Active>  (417) 
1.0

>  <bits>  (417) 
<rdkit.DataStructs.cDataStructs.ExplicitBitVect object at 0x00000159F78D1BD0>

>  <Group>  (417) 
G2

$$$$

     RDKit          2D

 36 40  0  0  0  0  0  0  0  0999 V2000
   -2.9499    4.2246    0.0000 C   0  0  0  0  0  0  0  0  0  0  0  0
   -1.8351    3.2209    0.0000 C   0  0  0  0  0  0  0  0  0  0  0  0
   -0.4086    3.6844    0.0000 C   0  0  0  0  0  0  0  0  0  0  0  0
    0.7062    2.6807    0.0000 C   0  0  0  0  0  0  0  0  0  0  0  0
    2.1328    3.1443    0.0000 C   0  0  0  0  0  0  0  0  0  0  0  0
    2.4446    4.6115    0.0000 F   0  0  0  0  0  0  0  0  0  0  0  0
    3.2475    2.1406    0.0000 F   0  0  0  0  0  0  0  0  0  0  0  0
    0.3943    1.2135    0.0000 N   0  0  0  0  0  0  0  0  0  0  0  0
    1.2760    0.0000    0.0000 N   0  0  0  0  0  0  0  0  0  0  0  0
    0.3943   -1.2135    0.0000 C   0  0  0  0  0  0  0  0  0  0  0  0
    0.8578   -2.6401    0.0000 C   0  0  0  0  0  0  0  0  0  0  0  0
    2.3250   -2.9520    0.0000 O   0  0  0  0  0  0  0  0  0  0  0  0
   -0.1459   -3.7548    0.0000 N   0  0  0  0  0  0  0  0  0  0  0  0
    0.3177   -5.1814    0.0000 C   0  0  0  0  0  0  0  0  0  0  0  0
   -0.6860   -6.2961    0.0000 C   0  0  0  0  0  0  0  0  0  0  0  0
   -0.2225   -7.7227    0.0000 N   0  0  0  0  0  0  0  0  0  0  0  0
    1.2447   -8.0346    0.0000 C   0  0  0  0  0  0  0  0  0  0  0  0
    2.2484   -6.9199    0.0000 C   0  0  0  0  0  0  0  0  0  0  0  0
    3.7156   -7.2317    0.0000 C   0  0  0  0  0  0  0  0  0  0  0  0
    4.7193   -6.1170    0.0000 O   0  0  0  0  0  0  0  0  0  0  0  0
    4.1791   -8.6583    0.0000 C   0  0  0  0  0  0  0  0  0  0  0  0
    3.2975   -9.8718    0.0000 C   0  0  0  0  0  0  0  0  0  0  0  0
    4.1791  -11.0854    0.0000 N   0  0  0  0  0  0  0  0  0  0  0  0
    3.7156  -12.5120    0.0000 C   0  0  0  0  0  0  0  0  0  0  0  0
    2.2484  -12.8238    0.0000 C   0  0  0  0  0  0  0  0  0  0  0  0
    4.7193  -13.6267    0.0000 C   0  0  0  0  0  0  0  0  0  0  0  0
    5.6057  -10.6218    0.0000 C   0  0  0  0  0  0  0  0  0  0  0  0
    6.9048  -11.3718    0.0000 N   0  0  0  0  0  0  0  0  0  0  0  0
    8.2038  -10.6218    0.0000 C   0  0  0  0  0  0  0  0  0  0  0  0
    8.2038   -9.1218    0.0000 N   0  0  0  0  0  0  0  0  0  0  0  0
    6.9048   -8.3718    0.0000 C   0  0  0  0  0  0  0  0  0  0  0  0
    5.6057   -9.1218    0.0000 C   0  0  0  0  0  0  0  0  0  0  0  0
    1.7849   -5.4933    0.0000 C   0  0  0  0  0  0  0  0  0  0  0  0
   -1.0323   -0.7500    0.0000 N   0  0  0  0  0  0  0  0  0  0  0  0
   -1.0323    0.7500    0.0000 C   0  0  0  0  0  0  0  0  0  0  0  0
   -2.1470    1.7537    0.0000 N   0  0  0  0  0  0  0  0  0  0  0  0
  1  2  1  0
  2  3  1  0
  3  4  2  0
  4  5  1  0
  5  6  1  0
  5  7  1  0
  4  8  1  0
  8  9  1  0
  9 10  2  0
 10 11  1  0
 11 12  2  0
 11 13  1  0
 13 14  1  0
 14 15  2  0
 15 16  1  0
 16 17  2  0
 17 18  1  0
 18 19  1  0
 19 20  2  0
 19 21  1  0
 21 22  2  0
 22 23  1  0
 23 24  1  0
 24 25  1  0
 24 26  1  0
 23 27  1  0
 27 28  2  0
 28 29  1  0
 29 30  2  0
 30 31  1  0
 31 32  2  0
 18 33  2  0
 10 34  1  0
 34 35  2  0
 35 36  1  0
 36  2  2  0
 35  8  1  0
 33 14  1  0
 32 21  1  0
 32 27  1  0
M  END
>  <Compound_ID>  (418) 
CHEMBL3666341

>  <Molecule Name>  (418) 
nan

>  <Molecular Weight>  (418) 
491.46

>  <AlogP>  (418) 
3.57

>  <Smiles>  (418) 
Cc1cc(C(F)F)n2nc(C(=O)Nc3cncc(C(=O)c4cn(C(C)C)c5ncncc45)c3)nc2n1

>  <Standard Type>  (418) 
IC50

>  <Standard Relation>  (418) 
'='

>  <Standard Units>  (418) 
nM

>  <Standard Value>  (418) 
56.3

>  <Assay ChEMBL ID>  (418) 
CHEMBL3887033

>  <Assay Description>  (418) 
Enzyme Assay: Isolated TRK Enzyme assays use the HTRF KinEASE-TK kit (Cisbio Cat# 62TK0PEJ) with recombinant His-tagged cytoplasmic domains of each TRK receptor sourced from Invitrogen (see table below). This activity-assay measures the phosphorylation of tyrosine residues within a substrate from the HTRF kit which has been validated by Cisbio for a variety of tyrosine kinases including the TRK receptors. Assay details: Target:TRKA; Invitrogen Cat# PV3144; Amino acids:aa 441-796; FAC enzyme:4nM; FAC ATP:40uM; Assay Reaction Time:35min.

>  <BAO Format ID>  (418) 
BAO_0000357

>  <BAO Label>  (418) 
single protein format

>  <Assay Organism>  (418) 
None

>  <Target ChEMBL ID>  (418) 
CHEMBL2815

>  <Target Name>  (418) 
Nerve growth factor receptor Trk-A

>  <Target Organism>  (418) 
Homo sapiens

>  <Target Type>  (418) 
SINGLE PROTEIN

>  <Document ChEMBL ID>  (418) 
CHEMBL3639348

>  <Source Description>  (418) 
BindingDB Database

>  <Document Journal>  (418) 
nan

>  <Document Year>  (418) 
2014.0

>  <Active>  (418) 
1.0

>  <bits>  (418) 
<rdkit.DataStructs.cDataStructs.ExplicitBitVect object at 0x00000159F78D1930>

>  <Group>  (418) 
G2

$$$$

     RDKit          2D

 34 38  0  0  0  0  0  0  0  0999 V2000
   -7.9882  -15.8540    0.0000 C   0  0  0  0  0  0  0  0  0  0  0  0
   -6.5616  -15.3904    0.0000 O   0  0  0  0  0  0  0  0  0  0  0  0
   -6.2498  -13.9232    0.0000 C   0  0  0  0  0  0  0  0  0  0  0  0
   -7.3645  -12.9195    0.0000 C   0  0  0  0  0  0  0  0  0  0  0  0
   -7.0526  -11.4523    0.0000 C   0  0  0  0  0  0  0  0  0  0  0  0
   -5.6260  -10.9888    0.0000 C   0  0  0  0  0  0  0  0  0  0  0  0
   -5.3142   -9.5216    0.0000 C   0  0  0  0  0  0  0  0  0  0  0  0
   -3.8876   -9.0580    0.0000 O   0  0  0  0  0  0  0  0  0  0  0  0
   -3.5757   -7.5908    0.0000 C   0  0  0  0  0  0  0  0  0  0  0  0
   -2.1491   -7.1273    0.0000 C   0  0  0  0  0  0  0  0  0  0  0  0
   -1.8373   -5.6601    0.0000 C   0  0  0  0  0  0  0  0  0  0  0  0
   -2.9520   -4.6564    0.0000 C   0  0  0  0  0  0  0  0  0  0  0  0
   -2.6401   -3.1891    0.0000 C   0  0  0  0  0  0  0  0  0  0  0  0
   -1.2135   -2.7256    0.0000 N   0  0  0  0  0  0  0  0  0  0  0  0
   -0.0000   -3.6073    0.0000 C   0  0  0  0  0  0  0  0  0  0  0  0
    1.2135   -2.7256    0.0000 N   0  0  0  0  0  0  0  0  0  0  0  0
    0.7500   -1.2990    0.0000 C   0  0  0  0  0  0  0  0  0  0  0  0
    1.5000    0.0000    0.0000 C   0  0  0  0  0  0  0  0  0  0  0  0
    0.7500    1.2990    0.0000 C   0  0  0  0  0  0  0  0  0  0  0  0
    1.5000    2.5981    0.0000 N   0  0  0  0  0  0  0  0  0  0  0  0
    3.0000    2.5981    0.0000 C   0  0  0  0  0  0  0  0  0  0  0  0
    3.7500    3.8971    0.0000 C   0  0  0  0  0  0  0  0  0  0  0  0
    3.0000    5.1962    0.0000 O   0  0  0  0  0  0  0  0  0  0  0  0
    1.5000    5.1962    0.0000 C   0  0  0  0  0  0  0  0  0  0  0  0
    0.7500    3.8971    0.0000 C   0  0  0  0  0  0  0  0  0  0  0  0
   -0.7500    1.2990    0.0000 C   0  0  0  0  0  0  0  0  0  0  0  0
   -1.5000    0.0000    0.0000 N   0  0  0  0  0  0  0  0  0  0  0  0
   -0.7500   -1.2990    0.0000 C   0  0  0  0  0  0  0  0  0  0  0  0
   -4.3786   -5.1199    0.0000 C   0  0  0  0  0  0  0  0  0  0  0  0
   -4.6904   -6.5871    0.0000 C   0  0  0  0  0  0  0  0  0  0  0  0
   -6.1170   -7.0506    0.0000 O   0  0  0  0  0  0  0  0  0  0  0  0
   -7.2317   -6.0469    0.0000 C   0  0  0  0  0  0  0  0  0  0  0  0
   -4.5113  -11.9925    0.0000 C   0  0  0  0  0  0  0  0  0  0  0  0
   -4.8232  -13.4597    0.0000 N   0  0  0  0  0  0  0  0  0  0  0  0
  1  2  1  0
  2  3  1  0
  3  4  2  0
  4  5  1  0
  5  6  2  0
  6  7  1  0
  7  8  1  0
  8  9  1  0
  9 10  2  0
 10 11  1  0
 11 12  2  0
 12 13  1  0
 13 14  1  0
 14 15  1  0
 15 16  2  0
 16 17  1  0
 17 18  2  0
 18 19  1  0
 19 20  1  0
 20 21  1  0
 21 22  1  0
 22 23  1  0
 23 24  1  0
 24 25  1  0
 19 26  2  0
 26 27  1  0
 27 28  2  0
 12 29  1  0
 29 30  2  0
 30 31  1  0
 31 32  1  0
  6 33  1  0
 33 34  2  0
 34  3  1  0
 30  9  1  0
 28 14  1  0
 28 17  1  0
 25 20  1  0
M  END
>  <Compound_ID>  (419) 
CHEMBL3673456

>  <Molecule Name>  (419) 
nan

>  <Molecular Weight>  (419) 
461.52

>  <AlogP>  (419) 
3.31

>  <Smiles>  (419) 
COc1ccc(COc2ccc(Cn3cnc4cc(N5CCOCC5)cnc43)cc2OC)cn1

>  <Standard Type>  (419) 
IC50

>  <Standard Relation>  (419) 
'='

>  <Standard Units>  (419) 
nM

>  <Standard Value>  (419) 
90.0

>  <Assay ChEMBL ID>  (419) 
CHEMBL3887112

>  <Assay Description>  (419) 
Inhibition Assay: Reagents and consumables were purchased from Sigma Aldrich, Carna Biosciences, or Caliper Life Sciences. All assay reaction conditions for IC50 determinations were within the linear range with respect to time and enzyme concentration. In a 384 well polypropylene plate, TrkA (0.4 nM, Carna 08-186) was pre-incubated in a 100 mM Hepes-NaOH pH 7.5 buffer containing 0.01% Triton X-100, 10 mM MgCl2, 0.1% BSA, 1 mM DTT, 10 uM sodium orthovanadate and 10 uM beta-glycerophosphate and compound with a concentration of 2.5% DMSO for 15 minutes at room temperature. The reaction was initiated with an equal volume of peptide substrate (Caliper Life Sciences catalog no. 760430) and ATP in the aforementioned buffer. The final concentrations in the reaction were 200 pM TrkA, 1.5 uM peptide substrate and 55 uM ATP (ATP Km). The reaction was incubated at room temperature for 180 minutes and terminated with a buffer containing excess EDTA (100 mM Hepes-NaOH pH 7.5, 0.02% Brij.

>  <BAO Format ID>  (419) 
BAO_0000357

>  <BAO Label>  (419) 
single protein format

>  <Assay Organism>  (419) 
None

>  <Target ChEMBL ID>  (419) 
CHEMBL2815

>  <Target Name>  (419) 
Nerve growth factor receptor Trk-A

>  <Target Organism>  (419) 
Homo sapiens

>  <Target Type>  (419) 
SINGLE PROTEIN

>  <Document ChEMBL ID>  (419) 
CHEMBL3638818

>  <Source Description>  (419) 
BindingDB Database

>  <Document Journal>  (419) 
nan

>  <Document Year>  (419) 
2015.0

>  <Active>  (419) 
1.0

>  <bits>  (419) 
<rdkit.DataStructs.cDataStructs.ExplicitBitVect object at 0x00000159F78D23B0>

>  <Group>  (419) 
G2

$$$$

     RDKit          2D

 36 40  0  0  0  0  0  0  0  0999 V2000
   -5.3605    2.7564    0.0000 C   0  0  0  0  0  0  0  0  0  0  0  0
   -4.2458    1.7527    0.0000 O   0  0  0  0  0  0  0  0  0  0  0  0
   -4.5577    0.2855    0.0000 C   0  0  0  0  0  0  0  0  0  0  0  0
   -3.4430   -0.7182    0.0000 C   0  0  0  0  0  0  0  0  0  0  0  0
   -3.7548   -2.1855    0.0000 C   0  0  0  0  0  0  0  0  0  0  0  0
   -2.6401   -3.1891    0.0000 C   0  0  0  0  0  0  0  0  0  0  0  0
   -1.2135   -2.7256    0.0000 N   0  0  0  0  0  0  0  0  0  0  0  0
   -0.0000   -3.6073    0.0000 C   0  0  0  0  0  0  0  0  0  0  0  0
    0.0000   -5.1073    0.0000 N   0  0  0  0  0  0  0  0  0  0  0  0
    1.2135   -2.7256    0.0000 N   0  0  0  0  0  0  0  0  0  0  0  0
    0.7500   -1.2990    0.0000 C   0  0  0  0  0  0  0  0  0  0  0  0
    1.5000    0.0000    0.0000 C   0  0  0  0  0  0  0  0  0  0  0  0
    0.7500    1.2990    0.0000 C   0  0  0  0  0  0  0  0  0  0  0  0
    1.5000    2.5981    0.0000 C   0  0  0  0  0  0  0  0  0  0  0  0
    0.8899    3.9684    0.0000 C   0  0  0  0  0  0  0  0  0  0  0  0
    2.0046    4.9721    0.0000 N   0  0  0  0  0  0  0  0  0  0  0  0
    3.3037    4.2221    0.0000 N   0  0  0  0  0  0  0  0  0  0  0  0
    4.6740    4.8322    0.0000 C   0  0  0  0  0  0  0  0  0  0  0  0
    2.9918    2.7549    0.0000 C   0  0  0  0  0  0  0  0  0  0  0  0
   -0.7500    1.2990    0.0000 C   0  0  0  0  0  0  0  0  0  0  0  0
   -1.5000    0.0000    0.0000 N   0  0  0  0  0  0  0  0  0  0  0  0
   -0.7500   -1.2990    0.0000 C   0  0  0  0  0  0  0  0  0  0  0  0
   -5.1814   -2.6490    0.0000 C   0  0  0  0  0  0  0  0  0  0  0  0
   -6.2961   -1.6453    0.0000 C   0  0  0  0  0  0  0  0  0  0  0  0
   -5.9843   -0.1781    0.0000 C   0  0  0  0  0  0  0  0  0  0  0  0
   -7.0990    0.8256    0.0000 O   0  0  0  0  0  0  0  0  0  0  0  0
   -8.5256    0.3621    0.0000 C   0  0  0  0  0  0  0  0  0  0  0  0
   -9.6403    1.3658    0.0000 C   0  0  0  0  0  0  0  0  0  0  0  0
  -11.1075    1.0539    0.0000 C   0  0  0  0  0  0  0  0  0  0  0  0
  -11.8575    2.3530    0.0000 S   0  0  0  0  0  0  0  0  0  0  0  0
  -10.8538    3.4677    0.0000 C   0  0  0  0  0  0  0  0  0  0  0  0
  -11.1657    4.9349    0.0000 C   0  0  0  0  0  0  0  0  0  0  0  0
  -11.4775    6.4021    0.0000 F   0  0  0  0  0  0  0  0  0  0  0  0
   -9.6985    5.2468    0.0000 F   0  0  0  0  0  0  0  0  0  0  0  0
  -12.6329    4.6230    0.0000 F   0  0  0  0  0  0  0  0  0  0  0  0
   -9.4835    2.8576    0.0000 N   0  0  0  0  0  0  0  0  0  0  0  0
  1  2  1  0
  2  3  1  0
  3  4  2  0
  4  5  1  0
  5  6  1  0
  6  7  1  0
  7  8  1  0
  8  9  1  0
  8 10  2  0
 10 11  1  0
 11 12  2  0
 12 13  1  0
 13 14  1  0
 14 15  1  0
 15 16  2  0
 16 17  1  0
 17 18  1  0
 17 19  1  0
 13 20  2  0
 20 21  1  0
 21 22  2  0
  5 23  2  0
 23 24  1  0
 24 25  2  0
 25 26  1  0
 26 27  1  0
 27 28  1  0
 28 29  2  0
 29 30  1  0
 30 31  1  0
 31 32  1  0
 32 33  1  0
 32 34  1  0
 32 35  1  0
 31 36  2  0
 25  3  1  0
 36 28  1  0
 22  7  1  0
 22 11  1  0
 19 14  2  0
M  END
>  <Compound_ID>  (420) 
CHEMBL3678287

>  <Molecule Name>  (420) 
nan

>  <Molecular Weight>  (420) 
515.52

>  <AlogP>  (420) 
4.53

>  <Smiles>  (420) 
COc1cc(Cn2c(N)nc3cc(-c4cnn(C)c4)cnc32)ccc1OCc1csc(C(F)(F)F)n1

>  <Standard Type>  (420) 
IC50

>  <Standard Relation>  (420) 
'='

>  <Standard Units>  (420) 
nM

>  <Standard Value>  (420) 
0.2

>  <Assay ChEMBL ID>  (420) 
CHEMBL3887112

>  <Assay Description>  (420) 
Inhibition Assay: Reagents and consumables were purchased from Sigma Aldrich, Carna Biosciences, or Caliper Life Sciences. All assay reaction conditions for IC50 determinations were within the linear range with respect to time and enzyme concentration. In a 384 well polypropylene plate, TrkA (0.4 nM, Carna 08-186) was pre-incubated in a 100 mM Hepes-NaOH pH 7.5 buffer containing 0.01% Triton X-100, 10 mM MgCl2, 0.1% BSA, 1 mM DTT, 10 uM sodium orthovanadate and 10 uM beta-glycerophosphate and compound with a concentration of 2.5% DMSO for 15 minutes at room temperature. The reaction was initiated with an equal volume of peptide substrate (Caliper Life Sciences catalog no. 760430) and ATP in the aforementioned buffer. The final concentrations in the reaction were 200 pM TrkA, 1.5 uM peptide substrate and 55 uM ATP (ATP Km). The reaction was incubated at room temperature for 180 minutes and terminated with a buffer containing excess EDTA (100 mM Hepes-NaOH pH 7.5, 0.02% Brij.

>  <BAO Format ID>  (420) 
BAO_0000357

>  <BAO Label>  (420) 
single protein format

>  <Assay Organism>  (420) 
None

>  <Target ChEMBL ID>  (420) 
CHEMBL2815

>  <Target Name>  (420) 
Nerve growth factor receptor Trk-A

>  <Target Organism>  (420) 
Homo sapiens

>  <Target Type>  (420) 
SINGLE PROTEIN

>  <Document ChEMBL ID>  (420) 
CHEMBL3638818

>  <Source Description>  (420) 
BindingDB Database

>  <Document Journal>  (420) 
nan

>  <Document Year>  (420) 
2015.0

>  <Active>  (420) 
1.0

>  <bits>  (420) 
<rdkit.DataStructs.cDataStructs.ExplicitBitVect object at 0x00000159F78D3F40>

>  <Group>  (420) 
G2

$$$$

     RDKit          2D

 29 32  0  0  0  0  0  0  0  0999 V2000
   -2.6401   -3.1891    0.0000 C   0  0  0  0  0  0  0  0  0  0  0  0
   -1.2135   -2.7256    0.0000 N   0  0  0  0  0  0  0  0  0  0  0  0
   -0.0000   -3.6073    0.0000 C   0  0  0  0  0  0  0  0  0  0  0  0
    1.2135   -2.7256    0.0000 C   0  0  0  0  0  0  0  0  0  0  0  0
    2.6401   -3.1891    0.0000 C   0  0  0  0  0  0  0  0  0  0  0  0
    3.7548   -2.1855    0.0000 O   0  0  0  0  0  0  0  0  0  0  0  0
    2.9520   -4.6564    0.0000 C   0  0  0  0  0  0  0  0  0  0  0  0
    1.8373   -5.6601    0.0000 C   0  0  0  0  0  0  0  0  0  0  0  0
    2.1491   -7.1273    0.0000 N   0  0  0  0  0  0  0  0  0  0  0  0
    3.5757   -7.5908    0.0000 C   0  0  0  0  0  0  0  0  0  0  0  0
    4.6904   -6.5871    0.0000 C   0  0  0  0  0  0  0  0  0  0  0  0
    6.1170   -7.0506    0.0000 N   0  0  0  0  0  0  0  0  0  0  0  0
    6.4289   -8.5179    0.0000 C   0  0  0  0  0  0  0  0  0  0  0  0
    5.3142   -9.5216    0.0000 O   0  0  0  0  0  0  0  0  0  0  0  0
    7.8555   -8.9814    0.0000 N   0  0  0  0  0  0  0  0  0  0  0  0
    8.1673  -10.4486    0.0000 C   0  0  0  0  0  0  0  0  0  0  0  0
    7.0526  -11.4523    0.0000 C   0  0  0  0  0  0  0  0  0  0  0  0
    7.3645  -12.9195    0.0000 C   0  0  0  0  0  0  0  0  0  0  0  0
    8.7911  -13.3831    0.0000 C   0  0  0  0  0  0  0  0  0  0  0  0
    9.1029  -14.8503    0.0000 Cl  0  0  0  0  0  0  0  0  0  0  0  0
    9.9058  -12.3794    0.0000 C   0  0  0  0  0  0  0  0  0  0  0  0
    9.5939  -10.9121    0.0000 C   0  0  0  0  0  0  0  0  0  0  0  0
    4.3786   -5.1199    0.0000 C   0  0  0  0  0  0  0  0  0  0  0  0
    0.7500   -1.2990    0.0000 C   0  0  0  0  0  0  0  0  0  0  0  0
    1.5000    0.0000    0.0000 C   0  0  0  0  0  0  0  0  0  0  0  0
    0.7500    1.2990    0.0000 N   0  0  0  0  0  0  0  0  0  0  0  0
   -0.7500    1.2990    0.0000 C   0  0  0  0  0  0  0  0  0  0  0  0
   -1.5000    0.0000    0.0000 N   0  0  0  0  0  0  0  0  0  0  0  0
   -0.7500   -1.2990    0.0000 C   0  0  0  0  0  0  0  0  0  0  0  0
  1  2  1  0
  2  3  1  0
  3  4  2  0
  4  5  1  0
  5  6  2  0
  5  7  1  0
  7  8  2  0
  8  9  1  0
  9 10  2  0
 10 11  1  0
 11 12  1  0
 12 13  1  0
 13 14  2  0
 13 15  1  0
 15 16  1  0
 16 17  2  0
 17 18  1  0
 18 19  2  0
 19 20  1  0
 19 21  1  0
 21 22  2  0
 11 23  2  0
  4 24  1  0
 24 25  2  0
 25 26  1  0
 26 27  2  0
 27 28  1  0
 28 29  2  0
 29  2  1  0
 23  7  1  0
 29 24  1  0
 22 16  1  0
M  END
>  <Compound_ID>  (421) 
CHEMBL3666292

>  <Molecule Name>  (421) 
nan

>  <Molecular Weight>  (421) 
406.83

>  <AlogP>  (421) 
3.89

>  <Smiles>  (421) 
Cn1cc(C(=O)c2cncc(NC(=O)Nc3ccc(Cl)cc3)c2)c2cncnc21

>  <Standard Type>  (421) 
IC50

>  <Standard Relation>  (421) 
'='

>  <Standard Units>  (421) 
nM

>  <Standard Value>  (421) 
20.2

>  <Assay ChEMBL ID>  (421) 
CHEMBL3887033

>  <Assay Description>  (421) 
Enzyme Assay: Isolated TRK Enzyme assays use the HTRF KinEASE-TK kit (Cisbio Cat# 62TK0PEJ) with recombinant His-tagged cytoplasmic domains of each TRK receptor sourced from Invitrogen (see table below). This activity-assay measures the phosphorylation of tyrosine residues within a substrate from the HTRF kit which has been validated by Cisbio for a variety of tyrosine kinases including the TRK receptors. Assay details: Target:TRKA; Invitrogen Cat# PV3144; Amino acids:aa 441-796; FAC enzyme:4nM; FAC ATP:40uM; Assay Reaction Time:35min.

>  <BAO Format ID>  (421) 
BAO_0000357

>  <BAO Label>  (421) 
single protein format

>  <Assay Organism>  (421) 
None

>  <Target ChEMBL ID>  (421) 
CHEMBL2815

>  <Target Name>  (421) 
Nerve growth factor receptor Trk-A

>  <Target Organism>  (421) 
Homo sapiens

>  <Target Type>  (421) 
SINGLE PROTEIN

>  <Document ChEMBL ID>  (421) 
CHEMBL3639348

>  <Source Description>  (421) 
BindingDB Database

>  <Document Journal>  (421) 
nan

>  <Document Year>  (421) 
2014.0

>  <Active>  (421) 
1.0

>  <bits>  (421) 
<rdkit.DataStructs.cDataStructs.ExplicitBitVect object at 0x00000159F78D2E30>

>  <Group>  (421) 
G2

$$$$

     RDKit          2D

 36 39  0  0  0  0  0  0  0  0999 V2000
   -2.1766   -4.6157    0.0000 C   0  0  0  0  0  0  0  0  0  0  0  0
   -2.6401   -3.1891    0.0000 C   0  0  0  0  0  0  0  0  0  0  0  0
   -3.1036   -1.7626    0.0000 C   0  0  0  0  0  0  0  0  0  0  0  0
   -4.5709   -1.4507    0.0000 O   0  0  0  0  0  0  0  0  0  0  0  0
   -4.0667   -3.6527    0.0000 C   0  0  0  0  0  0  0  0  0  0  0  0
   -5.1814   -2.6490    0.0000 O   0  0  0  0  0  0  0  0  0  0  0  0
   -1.2135   -2.7256    0.0000 N   0  0  0  0  0  0  0  0  0  0  0  0
   -0.0000   -3.6073    0.0000 C   0  0  0  0  0  0  0  0  0  0  0  0
    1.2135   -2.7256    0.0000 C   0  0  0  0  0  0  0  0  0  0  0  0
    2.6401   -3.1891    0.0000 C   0  0  0  0  0  0  0  0  0  0  0  0
    3.7548   -2.1855    0.0000 O   0  0  0  0  0  0  0  0  0  0  0  0
    2.9520   -4.6564    0.0000 C   0  0  0  0  0  0  0  0  0  0  0  0
    1.8373   -5.6601    0.0000 C   0  0  0  0  0  0  0  0  0  0  0  0
    2.1491   -7.1273    0.0000 N   0  0  0  0  0  0  0  0  0  0  0  0
    3.5757   -7.5908    0.0000 C   0  0  0  0  0  0  0  0  0  0  0  0
    4.6904   -6.5871    0.0000 C   0  0  0  0  0  0  0  0  0  0  0  0
    6.1170   -7.0506    0.0000 N   0  0  0  0  0  0  0  0  0  0  0  0
    6.4289   -8.5179    0.0000 C   0  0  0  0  0  0  0  0  0  0  0  0
    5.3142   -9.5216    0.0000 O   0  0  0  0  0  0  0  0  0  0  0  0
    7.8555   -8.9814    0.0000 C   0  0  0  0  0  0  0  0  0  0  0  0
    8.1673  -10.4486    0.0000 N   0  0  0  0  0  0  0  0  0  0  0  0
    9.5377  -11.0587    0.0000 C   0  0  0  0  0  0  0  0  0  0  0  0
    9.3809  -12.5505    0.0000 C   0  0  0  0  0  0  0  0  0  0  0  0
    7.9136  -12.8624    0.0000 C   0  0  0  0  0  0  0  0  0  0  0  0
    7.3035  -14.2327    0.0000 C   0  0  0  0  0  0  0  0  0  0  0  0
    6.6934  -15.6030    0.0000 F   0  0  0  0  0  0  0  0  0  0  0  0
    5.9332  -13.6226    0.0000 F   0  0  0  0  0  0  0  0  0  0  0  0
    8.6739  -14.8428    0.0000 F   0  0  0  0  0  0  0  0  0  0  0  0
    7.1636  -11.5633    0.0000 N   0  0  0  0  0  0  0  0  0  0  0  0
    4.3786   -5.1199    0.0000 C   0  0  0  0  0  0  0  0  0  0  0  0
    0.7500   -1.2990    0.0000 C   0  0  0  0  0  0  0  0  0  0  0  0
    1.5000    0.0000    0.0000 C   0  0  0  0  0  0  0  0  0  0  0  0
    0.7500    1.2990    0.0000 N   0  0  0  0  0  0  0  0  0  0  0  0
   -0.7500    1.2990    0.0000 C   0  0  0  0  0  0  0  0  0  0  0  0
   -1.5000    0.0000    0.0000 N   0  0  0  0  0  0  0  0  0  0  0  0
   -0.7500   -1.2990    0.0000 C   0  0  0  0  0  0  0  0  0  0  0  0
  1  2  1  0
  2  3  1  0
  3  4  1  0
  2  5  1  0
  5  6  1  0
  2  7  1  0
  7  8  1  0
  8  9  2  0
  9 10  1  0
 10 11  2  0
 10 12  1  0
 12 13  2  0
 13 14  1  0
 14 15  2  0
 15 16  1  0
 16 17  1  0
 17 18  1  0
 18 19  2  0
 18 20  1  0
 20 21  1  0
 21 22  1  0
 22 23  2  0
 23 24  1  0
 24 25  1  0
 25 26  1  0
 25 27  1  0
 25 28  1  0
 24 29  2  0
 16 30  2  0
  9 31  1  0
 31 32  2  0
 32 33  1  0
 33 34  2  0
 34 35  1  0
 35 36  2  0
 36  7  1  0
 30 12  1  0
 36 31  1  0
 29 21  1  0
M  END
>  <Compound_ID>  (422) 
CHEMBL3661628

>  <Molecule Name>  (422) 
nan

>  <Molecular Weight>  (422) 
503.44

>  <AlogP>  (422) 
1.61

>  <Smiles>  (422) 
CC(CO)(CO)n1cc(C(=O)c2cncc(NC(=O)Cn3ccc(C(F)(F)F)n3)c2)c2cncnc21

>  <Standard Type>  (422) 
IC50

>  <Standard Relation>  (422) 
'='

>  <Standard Units>  (422) 
nM

>  <Standard Value>  (422) 
22.6

>  <Assay ChEMBL ID>  (422) 
CHEMBL3887033

>  <Assay Description>  (422) 
Enzyme Assay: Isolated TRK Enzyme assays use the HTRF KinEASE-TK kit (Cisbio Cat# 62TK0PEJ) with recombinant His-tagged cytoplasmic domains of each TRK receptor sourced from Invitrogen (see table below). This activity-assay measures the phosphorylation of tyrosine residues within a substrate from the HTRF kit which has been validated by Cisbio for a variety of tyrosine kinases including the TRK receptors. Assay details: Target:TRKA; Invitrogen Cat# PV3144; Amino acids:aa 441-796; FAC enzyme:4nM; FAC ATP:40uM; Assay Reaction Time:35min.

>  <BAO Format ID>  (422) 
BAO_0000357

>  <BAO Label>  (422) 
single protein format

>  <Assay Organism>  (422) 
None

>  <Target ChEMBL ID>  (422) 
CHEMBL2815

>  <Target Name>  (422) 
Nerve growth factor receptor Trk-A

>  <Target Organism>  (422) 
Homo sapiens

>  <Target Type>  (422) 
SINGLE PROTEIN

>  <Document ChEMBL ID>  (422) 
CHEMBL3639348

>  <Source Description>  (422) 
BindingDB Database

>  <Document Journal>  (422) 
nan

>  <Document Year>  (422) 
2014.0

>  <Active>  (422) 
1.0

>  <bits>  (422) 
<rdkit.DataStructs.cDataStructs.ExplicitBitVect object at 0x00000159F78D31B0>

>  <Group>  (422) 
G2

$$$$

     RDKit          2D

 33 38  0  0  0  0  0  0  0  0999 V2000
   -3.7548   -2.1855    0.0000 O   0  0  0  0  0  0  0  0  0  0  0  0
   -2.6401   -3.1891    0.0000 C   0  0  0  0  0  0  0  0  0  0  0  0
   -2.9520   -4.6564    0.0000 N   0  0  0  0  0  0  0  0  0  0  0  0
   -4.3786   -5.1199    0.0000 C   0  0  0  0  0  0  0  0  0  0  0  0
   -4.8421   -6.5465    0.0000 C   0  0  0  0  0  0  0  0  0  0  0  0
   -6.0556   -7.4282    0.0000 C   0  0  0  0  0  0  0  0  0  0  0  0
   -7.2691   -6.5465    0.0000 C   0  0  0  0  0  0  0  0  0  0  0  0
   -6.8056   -5.1199    0.0000 C   0  0  0  0  0  0  0  0  0  0  0  0
   -5.3056   -5.1199    0.0000 C   0  0  0  0  0  0  0  0  0  0  0  0
   -5.5921   -4.2382    0.0000 C   0  0  0  0  0  0  0  0  0  0  0  0
   -5.5921   -2.7382    0.0000 C   0  0  0  0  0  0  0  0  0  0  0  0
   -6.8911   -1.9882    0.0000 O   0  0  0  0  0  0  0  0  0  0  0  0
   -1.2135   -2.7256    0.0000 C   0  0  0  0  0  0  0  0  0  0  0  0
   -0.0000   -3.6073    0.0000 C   0  0  0  0  0  0  0  0  0  0  0  0
    1.2135   -2.7256    0.0000 N   0  0  0  0  0  0  0  0  0  0  0  0
    0.7500   -1.2990    0.0000 N   0  0  0  0  0  0  0  0  0  0  0  0
    1.5000    0.0000    0.0000 C   0  0  0  0  0  0  0  0  0  0  0  0
    0.7500    1.2990    0.0000 C   0  0  0  0  0  0  0  0  0  0  0  0
   -0.7500    1.2990    0.0000 C   0  0  0  0  0  0  0  0  0  0  0  0
   -1.5000    2.5981    0.0000 N   0  0  0  0  0  0  0  0  0  0  0  0
   -2.9918    2.7549    0.0000 C   0  0  0  0  0  0  0  0  0  0  0  0
   -3.3037    4.2221    0.0000 C   0  0  0  0  0  0  0  0  0  0  0  0
   -2.0046    4.9721    0.0000 C   0  0  0  0  0  0  0  0  0  0  0  0
   -0.8899    3.9684    0.0000 C   0  0  0  0  0  0  0  0  0  0  0  0
    0.5773    4.2803    0.0000 C   0  0  0  0  0  0  0  0  0  0  0  0
    1.5810    3.1655    0.0000 C   0  0  0  0  0  0  0  0  0  0  0  0
    3.0482    3.4774    0.0000 N   0  0  0  0  0  0  0  0  0  0  0  0
    3.5118    4.9040    0.0000 C   0  0  0  0  0  0  0  0  0  0  0  0
    2.5081    6.0187    0.0000 C   0  0  0  0  0  0  0  0  0  0  0  0
    2.9716    7.4453    0.0000 F   0  0  0  0  0  0  0  0  0  0  0  0
    1.0409    5.7068    0.0000 C   0  0  0  0  0  0  0  0  0  0  0  0
   -1.5000    0.0000    0.0000 N   0  0  0  0  0  0  0  0  0  0  0  0
   -0.7500   -1.2990    0.0000 C   0  0  0  0  0  0  0  0  0  0  0  0
  1  2  2  0
  2  3  1  0
  4  3  1  6
  4  5  1  0
  5  6  1  0
  6  7  1  0
  8  7  1  6
  8  9  1  0
  8 10  1  0
 10 11  1  6
 11 12  1  0
  2 13  1  0
 13 14  1  0
 14 15  2  0
 15 16  1  0
 16 17  1  0
 17 18  2  0
 18 19  1  0
 19 20  1  0
 20 21  1  0
 21 22  1  0
 22 23  1  0
 23 24  1  0
 24 25  1  0
 25 26  2  0
 26 27  1  0
 27 28  2  0
 28 29  1  0
 29 30  1  0
 29 31  2  0
 19 32  2  0
 32 33  1  0
 10  4  1  0
 33 13  2  0
  9  5  1  0
 33 16  1  0
 24 20  1  0
 31 25  1  0
M  END
>  <Compound_ID>  (423) 
CHEMBL3676012

>  <Molecule Name>  (423) 
nan

>  <Molecular Weight>  (423) 
450.52

>  <AlogP>  (423) 
2.74

>  <Smiles>  (423) 
O=C(N[C@@H]1C2CC[C@@H](C2)[C@@H]1CO)c1cnn2ccc(N3CCCC3c3cncc(F)c3)nc12

>  <Standard Type>  (423) 
IC50

>  <Standard Relation>  (423) 
'='

>  <Standard Units>  (423) 
nM

>  <Standard Value>  (423) 
34.8

>  <Assay ChEMBL ID>  (423) 
CHEMBL3887070

>  <Assay Description>  (423) 
ELISA Assay: An enzyme-linked immunosorbant assay (ELISA) was used to assess TrkA kinase activity in the presence of inhibitors. Immulon 4HBX 384-well microtiter plates (Thermo part #8755) were coated with a 0.025 mg/mL solution of poly (Glu, Ala, Tyr; 6:3:1; Sigma P3899). Various concentrations of test compound, 2.5 nM TrkA (Invitrogen Corp., histidine-tagged recombinant human TrkA, cytoplasmic domain), and 500 uM ATP were incubated for 25 minutes at ambient temperature in the coated plates while shaking The assay buffer consisted of 25 mM MOPS pH 7.5, 0.005% (v/v) Triton X-100 and 5 mM MgCl2. The reaction mixture was removed from the plate by washing with PBS containing 0.1% (v/v) Tween 20. The phosphorylated reaction product was detected using 0.2 ug/mL of a phosphotyrosine specific monoclonal antibody (clone PY20) conjugated to horseradish peroxidase in conjunction with the TMB Peroxidase Substrate System (KPL).

>  <BAO Format ID>  (423) 
BAO_0000357

>  <BAO Label>  (423) 
single protein format

>  <Assay Organism>  (423) 
None

>  <Target ChEMBL ID>  (423) 
CHEMBL2815

>  <Target Name>  (423) 
Nerve growth factor receptor Trk-A

>  <Target Organism>  (423) 
Homo sapiens

>  <Target Type>  (423) 
SINGLE PROTEIN

>  <Document ChEMBL ID>  (423) 
CHEMBL3638907

>  <Source Description>  (423) 
BindingDB Database

>  <Document Journal>  (423) 
nan

>  <Document Year>  (423) 
2014.0

>  <Active>  (423) 
1.0

>  <bits>  (423) 
<rdkit.DataStructs.cDataStructs.ExplicitBitVect object at 0x00000159F78D13F0>

>  <Group>  (423) 
G2

$$$$

     RDKit          2D

 33 37  0  0  0  0  0  0  0  0999 V2000
   -6.9199   -4.5797    0.0000 O   0  0  0  0  0  0  0  0  0  0  0  0
   -7.2317   -6.0469    0.0000 C   0  0  0  0  0  0  0  0  0  0  0  0
   -8.6583   -6.5105    0.0000 C   0  0  0  0  0  0  0  0  0  0  0  0
   -9.7730   -5.5068    0.0000 C   0  0  0  0  0  0  0  0  0  0  0  0
   -9.4612   -4.0396    0.0000 C   0  0  0  0  0  0  0  0  0  0  0  0
  -10.5759   -3.0359    0.0000 C   0  0  0  0  0  0  0  0  0  0  0  0
  -12.0025   -3.4994    0.0000 C   0  0  0  0  0  0  0  0  0  0  0  0
  -13.1172   -2.4957    0.0000 Cl  0  0  0  0  0  0  0  0  0  0  0  0
  -12.3143   -4.9666    0.0000 C   0  0  0  0  0  0  0  0  0  0  0  0
  -13.7409   -5.4301    0.0000 Cl  0  0  0  0  0  0  0  0  0  0  0  0
  -11.1996   -5.9703    0.0000 C   0  0  0  0  0  0  0  0  0  0  0  0
   -6.1170   -7.0506    0.0000 N   0  0  0  0  0  0  0  0  0  0  0  0
   -4.6904   -6.5871    0.0000 C   0  0  0  0  0  0  0  0  0  0  0  0
   -3.5757   -7.5908    0.0000 C   0  0  0  0  0  0  0  0  0  0  0  0
   -2.1491   -7.1273    0.0000 N   0  0  0  0  0  0  0  0  0  0  0  0
   -1.8373   -5.6601    0.0000 C   0  0  0  0  0  0  0  0  0  0  0  0
   -2.9520   -4.6564    0.0000 C   0  0  0  0  0  0  0  0  0  0  0  0
   -2.6401   -3.1891    0.0000 C   0  0  0  0  0  0  0  0  0  0  0  0
   -3.7548   -2.1855    0.0000 O   0  0  0  0  0  0  0  0  0  0  0  0
   -1.2135   -2.7256    0.0000 C   0  0  0  0  0  0  0  0  0  0  0  0
   -0.0000   -3.6073    0.0000 C   0  0  0  0  0  0  0  0  0  0  0  0
    1.2135   -2.7256    0.0000 N   0  0  0  0  0  0  0  0  0  0  0  0
    2.6401   -3.1891    0.0000 C   0  0  0  0  0  0  0  0  0  0  0  0
    3.3211   -4.5257    0.0000 C   0  0  0  0  0  0  0  0  0  0  0  0
    4.6576   -3.8447    0.0000 O   0  0  0  0  0  0  0  0  0  0  0  0
    3.9766   -2.5082    0.0000 C   0  0  0  0  0  0  0  0  0  0  0  0
    0.7500   -1.2990    0.0000 C   0  0  0  0  0  0  0  0  0  0  0  0
    1.5000    0.0000    0.0000 N   0  0  0  0  0  0  0  0  0  0  0  0
    0.7500    1.2990    0.0000 C   0  0  0  0  0  0  0  0  0  0  0  0
   -0.7500    1.2990    0.0000 N   0  0  0  0  0  0  0  0  0  0  0  0
   -1.5000    0.0000    0.0000 C   0  0  0  0  0  0  0  0  0  0  0  0
   -0.7500   -1.2990    0.0000 C   0  0  0  0  0  0  0  0  0  0  0  0
   -4.3786   -5.1199    0.0000 C   0  0  0  0  0  0  0  0  0  0  0  0
  1  2  2  0
  2  3  1  0
  3  4  1  0
  4  5  2  0
  5  6  1  0
  6  7  2  0
  7  8  1  0
  7  9  1  0
  9 10  1  0
  9 11  2  0
  2 12  1  0
 12 13  1  0
 13 14  2  0
 14 15  1  0
 15 16  2  0
 16 17  1  0
 17 18  1  0
 18 19  2  0
 18 20  1  0
 20 21  2  0
 21 22  1  0
 22 23  1  0
 23 24  1  0
 24 25  1  0
 25 26  1  0
 22 27  1  0
 27 28  2  0
 28 29  1  0
 29 30  2  0
 30 31  1  0
 31 32  2  0
 17 33  2  0
 11  4  1  0
 33 13  1  0
 32 20  1  0
 26 23  1  0
 32 27  1  0
M  END
>  <Compound_ID>  (424) 
CHEMBL3661607

>  <Molecule Name>  (424) 
nan

>  <Molecular Weight>  (424) 
482.33

>  <AlogP>  (424) 
4.12

>  <Smiles>  (424) 
O=C(Cc1ccc(Cl)c(Cl)c1)Nc1cncc(C(=O)c2cn(C3COC3)c3ncncc23)c1

>  <Standard Type>  (424) 
IC50

>  <Standard Relation>  (424) 
'='

>  <Standard Units>  (424) 
nM

>  <Standard Value>  (424) 
83.3

>  <Assay ChEMBL ID>  (424) 
CHEMBL3887033

>  <Assay Description>  (424) 
Enzyme Assay: Isolated TRK Enzyme assays use the HTRF KinEASE-TK kit (Cisbio Cat# 62TK0PEJ) with recombinant His-tagged cytoplasmic domains of each TRK receptor sourced from Invitrogen (see table below). This activity-assay measures the phosphorylation of tyrosine residues within a substrate from the HTRF kit which has been validated by Cisbio for a variety of tyrosine kinases including the TRK receptors. Assay details: Target:TRKA; Invitrogen Cat# PV3144; Amino acids:aa 441-796; FAC enzyme:4nM; FAC ATP:40uM; Assay Reaction Time:35min.

>  <BAO Format ID>  (424) 
BAO_0000357

>  <BAO Label>  (424) 
single protein format

>  <Assay Organism>  (424) 
None

>  <Target ChEMBL ID>  (424) 
CHEMBL2815

>  <Target Name>  (424) 
Nerve growth factor receptor Trk-A

>  <Target Organism>  (424) 
Homo sapiens

>  <Target Type>  (424) 
SINGLE PROTEIN

>  <Document ChEMBL ID>  (424) 
CHEMBL3639348

>  <Source Description>  (424) 
BindingDB Database

>  <Document Journal>  (424) 
nan

>  <Document Year>  (424) 
2014.0

>  <Active>  (424) 
1.0

>  <bits>  (424) 
<rdkit.DataStructs.cDataStructs.ExplicitBitVect object at 0x00000159F78D0900>

>  <Group>  (424) 
G2

$$$$

     RDKit          2D

 29 33  0  0  0  0  0  0  0  0999 V2000
   -1.8373   -5.6601    0.0000 O   0  0  0  0  0  0  0  0  0  0  0  0
   -2.9520   -4.6564    0.0000 C   0  0  0  0  0  0  0  0  0  0  0  0
   -2.6401   -3.1891    0.0000 N   0  0  0  0  0  0  0  0  0  0  0  0
   -1.2135   -2.7256    0.0000 C   0  0  0  0  0  0  0  0  0  0  0  0
   -0.0000   -3.6073    0.0000 C   0  0  0  0  0  0  0  0  0  0  0  0
    1.2135   -2.7256    0.0000 N   0  0  0  0  0  0  0  0  0  0  0  0
    0.7500   -1.2990    0.0000 N   0  0  0  0  0  0  0  0  0  0  0  0
    1.5000    0.0000    0.0000 C   0  0  0  0  0  0  0  0  0  0  0  0
    0.7500    1.2990    0.0000 C   0  0  0  0  0  0  0  0  0  0  0  0
   -0.7500    1.2990    0.0000 C   0  0  0  0  0  0  0  0  0  0  0  0
   -1.5000    2.5981    0.0000 N   0  0  0  0  0  0  0  0  0  0  0  0
   -2.9918    2.7549    0.0000 C   0  0  0  0  0  0  0  0  0  0  0  0
   -3.3037    4.2221    0.0000 C   0  0  0  0  0  0  0  0  0  0  0  0
   -2.0046    4.9721    0.0000 C   0  0  0  0  0  0  0  0  0  0  0  0
   -0.8899    3.9684    0.0000 C   0  0  0  0  0  0  0  0  0  0  0  0
    0.5773    4.2803    0.0000 C   0  0  0  0  0  0  0  0  0  0  0  0
    1.5810    3.1655    0.0000 C   0  0  0  0  0  0  0  0  0  0  0  0
    3.0482    3.4774    0.0000 C   0  0  0  0  0  0  0  0  0  0  0  0
    4.0519    2.3627    0.0000 F   0  0  0  0  0  0  0  0  0  0  0  0
    3.5118    4.9040    0.0000 C   0  0  0  0  0  0  0  0  0  0  0  0
    2.5081    6.0187    0.0000 C   0  0  0  0  0  0  0  0  0  0  0  0
    1.0409    5.7068    0.0000 C   0  0  0  0  0  0  0  0  0  0  0  0
    0.0372    6.8216    0.0000 F   0  0  0  0  0  0  0  0  0  0  0  0
   -1.5000    0.0000    0.0000 N   0  0  0  0  0  0  0  0  0  0  0  0
   -0.7500   -1.2990    0.0000 C   0  0  0  0  0  0  0  0  0  0  0  0
   -4.3786   -5.1199    0.0000 C   0  0  0  0  0  0  0  0  0  0  0  0
   -5.0828   -3.7955    0.0000 O   0  0  0  0  0  0  0  0  0  0  0  0
   -5.5606   -6.0434    0.0000 C   0  0  0  0  0  0  0  0  0  0  0  0
   -4.1698   -6.6053    0.0000 C   0  0  0  0  0  0  0  0  0  0  0  0
  1  2  2  0
  2  3  1  0
  3  4  1  0
  4  5  1  0
  5  6  2  0
  6  7  1  0
  7  8  1  0
  8  9  2  0
  9 10  1  0
 10 11  1  0
 11 12  1  0
 12 13  1  0
 13 14  1  0
 14 15  1  0
 15 16  1  6
 16 17  2  0
 17 18  1  0
 18 19  1  0
 18 20  2  0
 20 21  1  0
 21 22  2  0
 22 23  1  0
 10 24  2  0
 24 25  1  0
  2 26  1  0
 26 27  1  0
 26 28  1  0
 28 29  1  0
 25  4  2  0
 29 26  1  0
 25  7  1  0
 15 11  1  0
 22 16  1  0
M  END
>  <Compound_ID>  (425) 
CHEMBL4115004

>  <Molecule Name>  (425) 
nan

>  <Molecular Weight>  (425) 
399.4

>  <AlogP>  (425) 
2.81

>  <Smiles>  (425) 
O=C(Nc1cnn2ccc(N3CCC[C@@H]3c3cc(F)ccc3F)nc12)C1(O)CC1

>  <Standard Type>  (425) 
IC50

>  <Standard Relation>  (425) 
'='

>  <Standard Units>  (425) 
nM

>  <Standard Value>  (425) 
16.5

>  <Assay ChEMBL ID>  (425) 
CHEMBL3887076

>  <Assay Description>  (425) 
ELISA Assay: An enzyme-linked immunosorbant assay (ELISA) was used to assess TrkA kinase activity in the presence of inhibitors. Immulon 4HBX 384-well microtiter plates (Thermo part #8755) were coated with a 0.025 mg/mL solution of poly (Glu, Ala, Tyr; 6:3:1; Sigma P3899). Various concentrations of test compound, 2.5 nM TrkA (Invitrogen Corp., histidine-tagged recombinant human TrkA, cytoplasmic domain), and 500 uM ATP were incubated for 25 minutes at ambient temperature in the coated plates while shaking. The assay buffer consisted of 25 mM MOPS pH 7.5, 0.005% (v/v) Triton X-100 and 5 mM MgCl2. The reaction mixture was removed from the plate by washing with PBS containing 0.1% (v/v) Tween 20. The phosphorylated reaction product was detected using 0.2 ug/mL of a phosphotyrosine specific monoclonal antibody (clone PY20) conjugated to horseradish peroxidase in conjunction with the TMB Peroxidase Substrate System (KPL).

>  <BAO Format ID>  (425) 
BAO_0000357

>  <BAO Label>  (425) 
single protein format

>  <Assay Organism>  (425) 
None

>  <Target ChEMBL ID>  (425) 
CHEMBL2815

>  <Target Name>  (425) 
Nerve growth factor receptor Trk-A

>  <Target Organism>  (425) 
Homo sapiens

>  <Target Type>  (425) 
SINGLE PROTEIN

>  <Document ChEMBL ID>  (425) 
CHEMBL3886151

>  <Source Description>  (425) 
BindingDB Database

>  <Document Journal>  (425) 
nan

>  <Document Year>  (425) 
2014.0

>  <Active>  (425) 
1.0

>  <bits>  (425) 
<rdkit.DataStructs.cDataStructs.ExplicitBitVect object at 0x00000159F78D03C0>

>  <Group>  (425) 
G2

$$$$

     RDKit          2D

 34 37  0  0  0  0  0  0  0  0999 V2000
    7.3934   -3.6905    0.0000 C   0  0  0  0  0  0  0  0  0  0  0  0
    5.9262   -3.3786    0.0000 O   0  0  0  0  0  0  0  0  0  0  0  0
    5.4627   -1.9520    0.0000 C   0  0  0  0  0  0  0  0  0  0  0  0
    6.4664   -0.8373    0.0000 N   0  0  0  0  0  0  0  0  0  0  0  0
    6.0029    0.5893    0.0000 C   0  0  0  0  0  0  0  0  0  0  0  0
    4.5356    0.9012    0.0000 C   0  0  0  0  0  0  0  0  0  0  0  0
    4.0721    2.3277    0.0000 F   0  0  0  0  0  0  0  0  0  0  0  0
    3.5320   -0.2136    0.0000 C   0  0  0  0  0  0  0  0  0  0  0  0
    3.9955   -1.6402    0.0000 C   0  0  0  0  0  0  0  0  0  0  0  0
    2.9918   -2.7549    0.0000 C   0  0  0  0  0  0  0  0  0  0  0  0
    3.3037   -4.2221    0.0000 C   0  0  0  0  0  0  0  0  0  0  0  0
    2.0046   -4.9721    0.0000 C   0  0  0  0  0  0  0  0  0  0  0  0
    0.8899   -3.9684    0.0000 C   0  0  0  0  0  0  0  0  0  0  0  0
    1.5000   -2.5981    0.0000 N   0  0  0  0  0  0  0  0  0  0  0  0
    0.7500   -1.2990    0.0000 C   0  0  0  0  0  0  0  0  0  0  0  0
    1.5000    0.0000    0.0000 C   0  0  0  0  0  0  0  0  0  0  0  0
    0.7500    1.2990    0.0000 C   0  0  0  0  0  0  0  0  0  0  0  0
   -0.7500    1.2990    0.0000 N   0  0  0  0  0  0  0  0  0  0  0  0
   -1.7537    2.4138    0.0000 N   0  0  0  0  0  0  0  0  0  0  0  0
   -3.1240    1.8037    0.0000 C   0  0  0  0  0  0  0  0  0  0  0  0
   -2.9672    0.3119    0.0000 C   0  0  0  0  0  0  0  0  0  0  0  0
   -4.0819   -0.6918    0.0000 C   0  0  0  0  0  0  0  0  0  0  0  0
   -3.7701   -2.1590    0.0000 O   0  0  0  0  0  0  0  0  0  0  0  0
   -5.5085   -0.2283    0.0000 N   0  0  0  0  0  0  0  0  0  0  0  0
   -6.6232   -1.2320    0.0000 O   0  0  0  0  0  0  0  0  0  0  0  0
   -8.0498   -0.7685    0.0000 C   0  0  0  0  0  0  0  0  0  0  0  0
   -9.1645   -1.7722    0.0000 C   0  0  0  0  0  0  0  0  0  0  0  0
  -10.5911   -1.3086    0.0000 O   0  0  0  0  0  0  0  0  0  0  0  0
  -11.7058   -2.3123    0.0000 C   0  0  0  0  0  0  0  0  0  0  0  0
  -12.7095   -1.1976    0.0000 C   0  0  0  0  0  0  0  0  0  0  0  0
  -10.7021   -3.4271    0.0000 C   0  0  0  0  0  0  0  0  0  0  0  0
  -12.8206   -3.3160    0.0000 C   0  0  0  0  0  0  0  0  0  0  0  0
   -1.5000    0.0000    0.0000 C   0  0  0  0  0  0  0  0  0  0  0  0
   -0.7500   -1.2990    0.0000 N   0  0  0  0  0  0  0  0  0  0  0  0
  1  2  1  0
  2  3  1  0
  3  4  2  0
  4  5  1  0
  5  6  2  0
  6  7  1  0
  6  8  1  0
  8  9  2  0
 10  9  1  1
 10 11  1  0
 11 12  1  0
 12 13  1  0
 13 14  1  0
 14 15  1  0
 15 16  1  0
 16 17  2  0
 17 18  1  0
 18 19  1  0
 19 20  2  0
 20 21  1  0
 21 22  1  0
 22 23  2  0
 22 24  1  0
 24 25  1  0
 25 26  1  0
 26 27  1  0
 27 28  1  0
 28 29  1  0
 29 30  1  0
 29 31  1  0
 29 32  1  0
 21 33  2  0
 33 34  1  0
  9  3  1  0
 14 10  1  0
 34 15  2  0
 33 18  1  0
M  END
>  <Compound_ID>  (426) 
CHEMBL3676023

>  <Molecule Name>  (426) 
nan

>  <Molecular Weight>  (426) 
472.52

>  <AlogP>  (426) 
3.09

>  <Smiles>  (426) 
COc1ncc(F)cc1[C@H]1CCCN1c1ccn2ncc(C(=O)NOCCOC(C)(C)C)c2n1

>  <Standard Type>  (426) 
IC50

>  <Standard Relation>  (426) 
'='

>  <Standard Units>  (426) 
nM

>  <Standard Value>  (426) 
18.1

>  <Assay ChEMBL ID>  (426) 
CHEMBL3887070

>  <Assay Description>  (426) 
ELISA Assay: An enzyme-linked immunosorbant assay (ELISA) was used to assess TrkA kinase activity in the presence of inhibitors. Immulon 4HBX 384-well microtiter plates (Thermo part #8755) were coated with a 0.025 mg/mL solution of poly (Glu, Ala, Tyr; 6:3:1; Sigma P3899). Various concentrations of test compound, 2.5 nM TrkA (Invitrogen Corp., histidine-tagged recombinant human TrkA, cytoplasmic domain), and 500 uM ATP were incubated for 25 minutes at ambient temperature in the coated plates while shaking The assay buffer consisted of 25 mM MOPS pH 7.5, 0.005% (v/v) Triton X-100 and 5 mM MgCl2. The reaction mixture was removed from the plate by washing with PBS containing 0.1% (v/v) Tween 20. The phosphorylated reaction product was detected using 0.2 ug/mL of a phosphotyrosine specific monoclonal antibody (clone PY20) conjugated to horseradish peroxidase in conjunction with the TMB Peroxidase Substrate System (KPL).

>  <BAO Format ID>  (426) 
BAO_0000357

>  <BAO Label>  (426) 
single protein format

>  <Assay Organism>  (426) 
None

>  <Target ChEMBL ID>  (426) 
CHEMBL2815

>  <Target Name>  (426) 
Nerve growth factor receptor Trk-A

>  <Target Organism>  (426) 
Homo sapiens

>  <Target Type>  (426) 
SINGLE PROTEIN

>  <Document ChEMBL ID>  (426) 
CHEMBL3638907

>  <Source Description>  (426) 
BindingDB Database

>  <Document Journal>  (426) 
nan

>  <Document Year>  (426) 
2014.0

>  <Active>  (426) 
1.0

>  <bits>  (426) 
<rdkit.DataStructs.cDataStructs.ExplicitBitVect object at 0x00000159F78D1620>

>  <Group>  (426) 
G2

$$$$

     RDKit          2D

 26 29  0  0  0  0  0  0  0  0999 V2000
    1.5000   -7.7942    0.0000 F   0  0  0  0  0  0  0  0  0  0  0  0
    0.7500   -6.4952    0.0000 C   0  0  0  0  0  0  0  0  0  0  0  0
   -0.7500   -6.4952    0.0000 C   0  0  0  0  0  0  0  0  0  0  0  0
   -1.5000   -5.1962    0.0000 C   0  0  0  0  0  0  0  0  0  0  0  0
   -3.0000   -5.1962    0.0000 F   0  0  0  0  0  0  0  0  0  0  0  0
   -0.7500   -3.8971    0.0000 C   0  0  0  0  0  0  0  0  0  0  0  0
    0.7500   -3.8971    0.0000 C   0  0  0  0  0  0  0  0  0  0  0  0
    1.5000   -2.5981    0.0000 C   0  0  0  0  0  0  0  0  0  0  0  0
    0.7500   -1.2990    0.0000 C   0  0  0  0  0  0  0  0  0  0  0  0
    1.5000    0.0000    0.0000 C   0  0  0  0  0  0  0  0  0  0  0  0
    0.7500    1.2990    0.0000 C   0  0  0  0  0  0  0  0  0  0  0  0
   -0.7500    1.2990    0.0000 C   0  0  0  0  0  0  0  0  0  0  0  0
   -1.7537    2.4138    0.0000 N   0  0  0  0  0  0  0  0  0  0  0  0
   -3.1240    1.8037    0.0000 N   0  0  0  0  0  0  0  0  0  0  0  0
   -2.9672    0.3119    0.0000 C   0  0  0  0  0  0  0  0  0  0  0  0
   -4.0819   -0.6918    0.0000 C   0  0  0  0  0  0  0  0  0  0  0  0
   -5.5085   -0.2283    0.0000 C   0  0  0  0  0  0  0  0  0  0  0  0
   -6.6232   -1.2320    0.0000 C   0  0  0  0  0  0  0  0  0  0  0  0
   -8.0498   -0.7685    0.0000 C   0  0  0  0  0  0  0  0  0  0  0  0
   -9.1645   -1.7722    0.0000 C   0  0  0  0  0  0  0  0  0  0  0  0
   -8.8527   -3.2394    0.0000 C   0  0  0  0  0  0  0  0  0  0  0  0
   -7.4261   -3.7029    0.0000 C   0  0  0  0  0  0  0  0  0  0  0  0
   -6.3114   -2.6992    0.0000 N   0  0  0  0  0  0  0  0  0  0  0  0
   -1.5000    0.0000    0.0000 C   0  0  0  0  0  0  0  0  0  0  0  0
   -0.7500   -1.2990    0.0000 C   0  0  0  0  0  0  0  0  0  0  0  0
    1.5000   -5.1962    0.0000 C   0  0  0  0  0  0  0  0  0  0  0  0
  1  2  1  0
  2  3  2  0
  3  4  1  0
  4  5  1  0
  4  6  2  0
  6  7  1  0
  7  8  1  0
  8  9  1  0
  9 10  2  0
 10 11  1  0
 11 12  2  0
 12 13  1  0
 13 14  1  0
 14 15  2  0
 15 16  1  0
 16 17  2  0
 17 18  1  0
 18 19  2  0
 19 20  1  0
 20 21  2  0
 21 22  1  0
 22 23  2  0
 15 24  1  0
 24 25  2  0
  7 26  2  0
 26  2  1  0
 25  9  1  0
 24 12  1  0
 23 18  1  0
M  END
>  <Compound_ID>  (427) 
CHEMBL4787950

>  <Molecule Name>  (427) 
nan

>  <Molecular Weight>  (427) 
347.37

>  <AlogP>  (427) 
5.0

>  <Smiles>  (427) 
Fc1cc(F)cc(Cc2ccc3[nH]nc(/C=C/c4ccccn4)c3c2)c1

>  <Standard Type>  (427) 
IC50

>  <Standard Relation>  (427) 
'='

>  <Standard Units>  (427) 
nM

>  <Standard Value>  (427) 
7.6

>  <Assay ChEMBL ID>  (427) 
CHEMBL4772612

>  <Assay Description>  (427) 
Inhibition of TrkA (unknown origin) using Tyr1 peptide as substrate in presence of ATP measured after 2 hrs by FRET-based Z-Lyte kinase assay

>  <BAO Format ID>  (427) 
BAO_0000357

>  <BAO Label>  (427) 
single protein format

>  <Assay Organism>  (427) 
Homo sapiens

>  <Target ChEMBL ID>  (427) 
CHEMBL2815

>  <Target Name>  (427) 
Nerve growth factor receptor Trk-A

>  <Target Organism>  (427) 
Homo sapiens

>  <Target Type>  (427) 
SINGLE PROTEIN

>  <Document ChEMBL ID>  (427) 
CHEMBL4765391

>  <Source Description>  (427) 
Scientific Literature

>  <Document Journal>  (427) 
Eur J Med Chem

>  <Document Year>  (427) 
2020.0

>  <Active>  (427) 
1.0

>  <bits>  (427) 
<rdkit.DataStructs.cDataStructs.ExplicitBitVect object at 0x00000159F78D1FC0>

>  <Group>  (427) 
G2

$$$$

     RDKit          2D

 34 38  0  0  0  0  0  0  0  0999 V2000
  -10.0849   -6.9740    0.0000 C   0  0  0  0  0  0  0  0  0  0  0  0
   -8.6583   -6.5105    0.0000 S   0  0  0  0  0  0  0  0  0  0  0  0
   -8.1948   -7.9371    0.0000 O   0  0  0  0  0  0  0  0  0  0  0  0
   -9.1218   -5.0839    0.0000 O   0  0  0  0  0  0  0  0  0  0  0  0
   -7.2317   -6.0469    0.0000 N   0  0  0  0  0  0  0  0  0  0  0  0
   -6.9199   -4.5797    0.0000 C   0  0  0  0  0  0  0  0  0  0  0  0
   -5.4933   -4.1162    0.0000 C   0  0  0  0  0  0  0  0  0  0  0  0
   -4.3786   -5.1199    0.0000 C   0  0  0  0  0  0  0  0  0  0  0  0
   -2.9520   -4.6564    0.0000 N   0  0  0  0  0  0  0  0  0  0  0  0
   -2.6401   -3.1891    0.0000 C   0  0  0  0  0  0  0  0  0  0  0  0
   -3.7548   -2.1855    0.0000 O   0  0  0  0  0  0  0  0  0  0  0  0
   -1.2135   -2.7256    0.0000 C   0  0  0  0  0  0  0  0  0  0  0  0
   -0.0000   -3.6073    0.0000 C   0  0  0  0  0  0  0  0  0  0  0  0
    1.2135   -2.7256    0.0000 N   0  0  0  0  0  0  0  0  0  0  0  0
    0.7500   -1.2990    0.0000 N   0  0  0  0  0  0  0  0  0  0  0  0
    1.5000    0.0000    0.0000 C   0  0  0  0  0  0  0  0  0  0  0  0
    0.7500    1.2990    0.0000 C   0  0  0  0  0  0  0  0  0  0  0  0
   -0.7500    1.2990    0.0000 C   0  0  0  0  0  0  0  0  0  0  0  0
   -1.5000    2.5981    0.0000 N   0  0  0  0  0  0  0  0  0  0  0  0
   -2.9918    2.7549    0.0000 C   0  0  0  0  0  0  0  0  0  0  0  0
   -3.3037    4.2221    0.0000 C   0  0  0  0  0  0  0  0  0  0  0  0
   -2.0046    4.9721    0.0000 C   0  0  0  0  0  0  0  0  0  0  0  0
   -0.8899    3.9684    0.0000 C   0  0  0  0  0  0  0  0  0  0  0  0
    0.5773    4.2803    0.0000 C   0  0  0  0  0  0  0  0  0  0  0  0
    1.5810    3.1655    0.0000 C   0  0  0  0  0  0  0  0  0  0  0  0
    3.0482    3.4774    0.0000 N   0  0  0  0  0  0  0  0  0  0  0  0
    3.5118    4.9040    0.0000 C   0  0  0  0  0  0  0  0  0  0  0  0
    2.5081    6.0187    0.0000 C   0  0  0  0  0  0  0  0  0  0  0  0
    2.9716    7.4453    0.0000 F   0  0  0  0  0  0  0  0  0  0  0  0
    1.0409    5.7068    0.0000 C   0  0  0  0  0  0  0  0  0  0  0  0
   -1.5000    0.0000    0.0000 N   0  0  0  0  0  0  0  0  0  0  0  0
   -0.7500   -1.2990    0.0000 C   0  0  0  0  0  0  0  0  0  0  0  0
   -4.6904   -6.5871    0.0000 C   0  0  0  0  0  0  0  0  0  0  0  0
   -6.1170   -7.0506    0.0000 C   0  0  0  0  0  0  0  0  0  0  0  0
  1  2  1  0
  2  3  2  0
  2  4  2  0
  2  5  1  0
  5  6  1  0
  6  7  1  0
  7  8  1  0
  8  9  1  0
  9 10  1  0
 10 11  2  0
 10 12  1  0
 12 13  1  0
 13 14  2  0
 14 15  1  0
 15 16  1  0
 16 17  2  0
 17 18  1  0
 18 19  1  0
 19 20  1  0
 20 21  1  0
 21 22  1  0
 22 23  1  0
 23 24  1  0
 24 25  2  0
 25 26  1  0
 26 27  2  0
 27 28  1  0
 28 29  1  0
 28 30  2  0
 18 31  2  0
 31 32  1  0
  8 33  1  0
 33 34  1  0
 34  5  1  0
 32 12  2  0
 32 15  1  0
 23 19  1  0
 30 24  1  0
M  END
>  <Compound_ID>  (428) 
CHEMBL3675945

>  <Molecule Name>  (428) 
nan

>  <Molecular Weight>  (428) 
487.56

>  <AlogP>  (428) 
1.76

>  <Smiles>  (428) 
CS(=O)(=O)N1CCC(NC(=O)c2cnn3ccc(N4CCCC4c4cncc(F)c4)nc23)CC1

>  <Standard Type>  (428) 
IC50

>  <Standard Relation>  (428) 
'='

>  <Standard Units>  (428) 
nM

>  <Standard Value>  (428) 
23.95

>  <Assay ChEMBL ID>  (428) 
CHEMBL3887070

>  <Assay Description>  (428) 
ELISA Assay: An enzyme-linked immunosorbant assay (ELISA) was used to assess TrkA kinase activity in the presence of inhibitors. Immulon 4HBX 384-well microtiter plates (Thermo part #8755) were coated with a 0.025 mg/mL solution of poly (Glu, Ala, Tyr; 6:3:1; Sigma P3899). Various concentrations of test compound, 2.5 nM TrkA (Invitrogen Corp., histidine-tagged recombinant human TrkA, cytoplasmic domain), and 500 uM ATP were incubated for 25 minutes at ambient temperature in the coated plates while shaking The assay buffer consisted of 25 mM MOPS pH 7.5, 0.005% (v/v) Triton X-100 and 5 mM MgCl2. The reaction mixture was removed from the plate by washing with PBS containing 0.1% (v/v) Tween 20. The phosphorylated reaction product was detected using 0.2 ug/mL of a phosphotyrosine specific monoclonal antibody (clone PY20) conjugated to horseradish peroxidase in conjunction with the TMB Peroxidase Substrate System (KPL).

>  <BAO Format ID>  (428) 
BAO_0000357

>  <BAO Label>  (428) 
single protein format

>  <Assay Organism>  (428) 
None

>  <Target ChEMBL ID>  (428) 
CHEMBL2815

>  <Target Name>  (428) 
Nerve growth factor receptor Trk-A

>  <Target Organism>  (428) 
Homo sapiens

>  <Target Type>  (428) 
SINGLE PROTEIN

>  <Document ChEMBL ID>  (428) 
CHEMBL3638907

>  <Source Description>  (428) 
BindingDB Database

>  <Document Journal>  (428) 
nan

>  <Document Year>  (428) 
2014.0

>  <Active>  (428) 
1.0

>  <bits>  (428) 
<rdkit.DataStructs.cDataStructs.ExplicitBitVect object at 0x00000159F78D1D20>

>  <Group>  (428) 
G2

$$$$

     RDKit          2D

 28 31  0  0  0  0  0  0  0  0999 V2000
   -2.9520   -4.6564    0.0000 N   0  0  0  0  0  0  0  0  0  0  0  0
   -2.6401   -3.1891    0.0000 C   0  0  0  0  0  0  0  0  0  0  0  0
   -3.7548   -2.1855    0.0000 O   0  0  0  0  0  0  0  0  0  0  0  0
   -1.2135   -2.7256    0.0000 C   0  0  0  0  0  0  0  0  0  0  0  0
   -0.0000   -3.6073    0.0000 C   0  0  0  0  0  0  0  0  0  0  0  0
    1.2135   -2.7256    0.0000 N   0  0  0  0  0  0  0  0  0  0  0  0
    0.7500   -1.2990    0.0000 N   0  0  0  0  0  0  0  0  0  0  0  0
    1.5000    0.0000    0.0000 C   0  0  0  0  0  0  0  0  0  0  0  0
    0.7500    1.2990    0.0000 C   0  0  0  0  0  0  0  0  0  0  0  0
   -0.7500    1.2990    0.0000 C   0  0  0  0  0  0  0  0  0  0  0  0
   -1.5000    2.5981    0.0000 N   0  0  0  0  0  0  0  0  0  0  0  0
   -2.9918    2.7549    0.0000 C   0  0  0  0  0  0  0  0  0  0  0  0
   -3.3037    4.2221    0.0000 C   0  0  0  0  0  0  0  0  0  0  0  0
   -2.0046    4.9721    0.0000 C   0  0  0  0  0  0  0  0  0  0  0  0
   -0.8899    3.9684    0.0000 C   0  0  0  0  0  0  0  0  0  0  0  0
    0.5773    4.2803    0.0000 C   0  0  0  0  0  0  0  0  0  0  0  0
    1.5810    3.1655    0.0000 C   0  0  0  0  0  0  0  0  0  0  0  0
    3.0482    3.4774    0.0000 C   0  0  0  0  0  0  0  0  0  0  0  0
    4.0519    2.3627    0.0000 F   0  0  0  0  0  0  0  0  0  0  0  0
    3.5118    4.9040    0.0000 C   0  0  0  0  0  0  0  0  0  0  0  0
    2.5081    6.0187    0.0000 C   0  0  0  0  0  0  0  0  0  0  0  0
    1.0409    5.7068    0.0000 C   0  0  0  0  0  0  0  0  0  0  0  0
    0.0372    6.8216    0.0000 C   0  0  0  0  0  0  0  0  0  0  0  0
   -0.9665    7.9363    0.0000 F   0  0  0  0  0  0  0  0  0  0  0  0
    1.1519    7.8253    0.0000 F   0  0  0  0  0  0  0  0  0  0  0  0
   -1.0776    5.8179    0.0000 F   0  0  0  0  0  0  0  0  0  0  0  0
   -1.5000    0.0000    0.0000 N   0  0  0  0  0  0  0  0  0  0  0  0
   -0.7500   -1.2990    0.0000 C   0  0  0  0  0  0  0  0  0  0  0  0
  1  2  1  0
  2  3  2  0
  2  4  1  0
  4  5  1  0
  5  6  2  0
  6  7  1  0
  7  8  1  0
  8  9  2  0
  9 10  1  0
 10 11  1  0
 11 12  1  0
 12 13  1  0
 13 14  1  0
 14 15  1  0
 15 16  1  6
 16 17  2  0
 17 18  1  0
 18 19  1  0
 18 20  2  0
 20 21  1  0
 21 22  2  0
 22 23  1  0
 23 24  1  0
 23 25  1  0
 23 26  1  0
 10 27  2  0
 27 28  1  0
 28  4  2  0
 28  7  1  0
 15 11  1  0
 22 16  1  0
M  END
>  <Compound_ID>  (429) 
CHEMBL3675940

>  <Molecule Name>  (429) 
nan

>  <Molecular Weight>  (429) 
393.34

>  <AlogP>  (429) 
3.33

>  <Smiles>  (429) 
NC(=O)c1cnn2ccc(N3CCC[C@@H]3c3cc(F)ccc3C(F)(F)F)nc12

>  <Standard Type>  (429) 
IC50

>  <Standard Relation>  (429) 
'='

>  <Standard Units>  (429) 
nM

>  <Standard Value>  (429) 
1.6

>  <Assay ChEMBL ID>  (429) 
CHEMBL3887070

>  <Assay Description>  (429) 
ELISA Assay: An enzyme-linked immunosorbant assay (ELISA) was used to assess TrkA kinase activity in the presence of inhibitors. Immulon 4HBX 384-well microtiter plates (Thermo part #8755) were coated with a 0.025 mg/mL solution of poly (Glu, Ala, Tyr; 6:3:1; Sigma P3899). Various concentrations of test compound, 2.5 nM TrkA (Invitrogen Corp., histidine-tagged recombinant human TrkA, cytoplasmic domain), and 500 uM ATP were incubated for 25 minutes at ambient temperature in the coated plates while shaking The assay buffer consisted of 25 mM MOPS pH 7.5, 0.005% (v/v) Triton X-100 and 5 mM MgCl2. The reaction mixture was removed from the plate by washing with PBS containing 0.1% (v/v) Tween 20. The phosphorylated reaction product was detected using 0.2 ug/mL of a phosphotyrosine specific monoclonal antibody (clone PY20) conjugated to horseradish peroxidase in conjunction with the TMB Peroxidase Substrate System (KPL).

>  <BAO Format ID>  (429) 
BAO_0000357

>  <BAO Label>  (429) 
single protein format

>  <Assay Organism>  (429) 
None

>  <Target ChEMBL ID>  (429) 
CHEMBL2815

>  <Target Name>  (429) 
Nerve growth factor receptor Trk-A

>  <Target Organism>  (429) 
Homo sapiens

>  <Target Type>  (429) 
SINGLE PROTEIN

>  <Document ChEMBL ID>  (429) 
CHEMBL3638907

>  <Source Description>  (429) 
BindingDB Database

>  <Document Journal>  (429) 
nan

>  <Document Year>  (429) 
2014.0

>  <Active>  (429) 
1.0

>  <bits>  (429) 
<rdkit.DataStructs.cDataStructs.ExplicitBitVect object at 0x00000159F78D1CB0>

>  <Group>  (429) 
G2

$$$$

     RDKit          2D

 33 37  0  0  0  0  0  0  0  0999 V2000
   -2.9520   -4.6564    0.0000 C   0  0  0  0  0  0  0  0  0  0  0  0
   -2.6401   -3.1891    0.0000 C   0  0  0  0  0  0  0  0  0  0  0  0
   -3.7548   -2.1855    0.0000 C   0  0  0  0  0  0  0  0  0  0  0  0
   -1.2135   -2.7256    0.0000 N   0  0  0  0  0  0  0  0  0  0  0  0
   -0.0000   -3.6073    0.0000 C   0  0  0  0  0  0  0  0  0  0  0  0
    1.2135   -2.7256    0.0000 C   0  0  0  0  0  0  0  0  0  0  0  0
    2.6401   -3.1891    0.0000 C   0  0  0  0  0  0  0  0  0  0  0  0
    3.7548   -2.1855    0.0000 O   0  0  0  0  0  0  0  0  0  0  0  0
    2.9520   -4.6564    0.0000 C   0  0  0  0  0  0  0  0  0  0  0  0
    1.8373   -5.6601    0.0000 C   0  0  0  0  0  0  0  0  0  0  0  0
    2.1491   -7.1273    0.0000 N   0  0  0  0  0  0  0  0  0  0  0  0
    3.5757   -7.5908    0.0000 C   0  0  0  0  0  0  0  0  0  0  0  0
    4.6904   -6.5871    0.0000 C   0  0  0  0  0  0  0  0  0  0  0  0
    6.1170   -7.0506    0.0000 N   0  0  0  0  0  0  0  0  0  0  0  0
    6.4289   -8.5179    0.0000 C   0  0  0  0  0  0  0  0  0  0  0  0
    5.3142   -9.5216    0.0000 O   0  0  0  0  0  0  0  0  0  0  0  0
    7.8555   -8.9814    0.0000 C   0  0  0  0  0  0  0  0  0  0  0  0
    8.1673  -10.4486    0.0000 N   0  0  0  0  0  0  0  0  0  0  0  0
    7.1636  -11.5633    0.0000 C   0  0  0  0  0  0  0  0  0  0  0  0
    7.9136  -12.8624    0.0000 C   0  0  0  0  0  0  0  0  0  0  0  0
    7.4501  -14.2890    0.0000 C   0  0  0  0  0  0  0  0  0  0  0  0
    8.4538  -15.4037    0.0000 C   0  0  0  0  0  0  0  0  0  0  0  0
    9.9210  -15.0918    0.0000 C   0  0  0  0  0  0  0  0  0  0  0  0
   10.3846  -13.6652    0.0000 C   0  0  0  0  0  0  0  0  0  0  0  0
    9.3809  -12.5505    0.0000 C   0  0  0  0  0  0  0  0  0  0  0  0
    9.5377  -11.0587    0.0000 N   0  0  0  0  0  0  0  0  0  0  0  0
    4.3786   -5.1199    0.0000 C   0  0  0  0  0  0  0  0  0  0  0  0
    0.7500   -1.2990    0.0000 C   0  0  0  0  0  0  0  0  0  0  0  0
    1.5000    0.0000    0.0000 C   0  0  0  0  0  0  0  0  0  0  0  0
    0.7500    1.2990    0.0000 N   0  0  0  0  0  0  0  0  0  0  0  0
   -0.7500    1.2990    0.0000 C   0  0  0  0  0  0  0  0  0  0  0  0
   -1.5000    0.0000    0.0000 N   0  0  0  0  0  0  0  0  0  0  0  0
   -0.7500   -1.2990    0.0000 C   0  0  0  0  0  0  0  0  0  0  0  0
  1  2  1  0
  2  3  1  0
  2  4  1  0
  4  5  1  0
  5  6  2  0
  6  7  1  0
  7  8  2  0
  7  9  1  0
  9 10  2  0
 10 11  1  0
 11 12  2  0
 12 13  1  0
 13 14  1  0
 14 15  1  0
 15 16  2  0
 15 17  1  0
 17 18  1  0
 18 19  1  0
 19 20  2  0
 20 21  1  0
 21 22  2  0
 22 23  1  0
 23 24  2  0
 24 25  1  0
 25 26  2  0
 13 27  2  0
  6 28  1  0
 28 29  2  0
 29 30  1  0
 30 31  2  0
 31 32  1  0
 32 33  2  0
 33  4  1  0
 27  9  1  0
 33 28  1  0
 26 18  1  0
 25 20  1  0
M  END
>  <Compound_ID>  (430) 
CHEMBL3661488

>  <Molecule Name>  (430) 
nan

>  <Molecular Weight>  (430) 
439.48

>  <AlogP>  (430) 
3.63

>  <Smiles>  (430) 
CC(C)n1cc(C(=O)c2cncc(NC(=O)Cn3cc4ccccc4n3)c2)c2cncnc21

>  <Standard Type>  (430) 
IC50

>  <Standard Relation>  (430) 
'='

>  <Standard Units>  (430) 
nM

>  <Standard Value>  (430) 
12.4

>  <Assay ChEMBL ID>  (430) 
CHEMBL3887033

>  <Assay Description>  (430) 
Enzyme Assay: Isolated TRK Enzyme assays use the HTRF KinEASE-TK kit (Cisbio Cat# 62TK0PEJ) with recombinant His-tagged cytoplasmic domains of each TRK receptor sourced from Invitrogen (see table below). This activity-assay measures the phosphorylation of tyrosine residues within a substrate from the HTRF kit which has been validated by Cisbio for a variety of tyrosine kinases including the TRK receptors. Assay details: Target:TRKA; Invitrogen Cat# PV3144; Amino acids:aa 441-796; FAC enzyme:4nM; FAC ATP:40uM; Assay Reaction Time:35min.

>  <BAO Format ID>  (430) 
BAO_0000357

>  <BAO Label>  (430) 
single protein format

>  <Assay Organism>  (430) 
None

>  <Target ChEMBL ID>  (430) 
CHEMBL2815

>  <Target Name>  (430) 
Nerve growth factor receptor Trk-A

>  <Target Organism>  (430) 
Homo sapiens

>  <Target Type>  (430) 
SINGLE PROTEIN

>  <Document ChEMBL ID>  (430) 
CHEMBL3639348

>  <Source Description>  (430) 
BindingDB Database

>  <Document Journal>  (430) 
nan

>  <Document Year>  (430) 
2014.0

>  <Active>  (430) 
1.0

>  <bits>  (430) 
<rdkit.DataStructs.cDataStructs.ExplicitBitVect object at 0x00000159F78D14D0>

>  <Group>  (430) 
G2

$$$$

     RDKit          2D

 29 33  0  0  0  0  0  0  0  0999 V2000
    7.3934   -3.6905    0.0000 C   0  0  0  0  0  0  0  0  0  0  0  0
    5.9262   -3.3786    0.0000 C   0  0  0  0  0  0  0  0  0  0  0  0
    5.4627   -1.9520    0.0000 C   0  0  0  0  0  0  0  0  0  0  0  0
    6.4664   -0.8373    0.0000 N   0  0  0  0  0  0  0  0  0  0  0  0
    6.0029    0.5893    0.0000 C   0  0  0  0  0  0  0  0  0  0  0  0
    4.5356    0.9012    0.0000 C   0  0  0  0  0  0  0  0  0  0  0  0
    4.0721    2.3277    0.0000 F   0  0  0  0  0  0  0  0  0  0  0  0
    3.5320   -0.2136    0.0000 C   0  0  0  0  0  0  0  0  0  0  0  0
    3.9955   -1.6402    0.0000 C   0  0  0  0  0  0  0  0  0  0  0  0
    2.9918   -2.7549    0.0000 C   0  0  0  0  0  0  0  0  0  0  0  0
    3.3037   -4.2221    0.0000 C   0  0  0  0  0  0  0  0  0  0  0  0
    2.0046   -4.9721    0.0000 C   0  0  0  0  0  0  0  0  0  0  0  0
    0.8899   -3.9684    0.0000 C   0  0  0  0  0  0  0  0  0  0  0  0
    1.5000   -2.5981    0.0000 N   0  0  0  0  0  0  0  0  0  0  0  0
    0.7500   -1.2990    0.0000 C   0  0  0  0  0  0  0  0  0  0  0  0
    1.5000    0.0000    0.0000 C   0  0  0  0  0  0  0  0  0  0  0  0
    0.7500    1.2990    0.0000 C   0  0  0  0  0  0  0  0  0  0  0  0
   -0.7500    1.2990    0.0000 N   0  0  0  0  0  0  0  0  0  0  0  0
   -1.7537    2.4138    0.0000 N   0  0  0  0  0  0  0  0  0  0  0  0
   -3.1240    1.8037    0.0000 C   0  0  0  0  0  0  0  0  0  0  0  0
   -2.9672    0.3119    0.0000 C   0  0  0  0  0  0  0  0  0  0  0  0
   -4.0819   -0.6918    0.0000 C   0  0  0  0  0  0  0  0  0  0  0  0
   -3.7701   -2.1590    0.0000 O   0  0  0  0  0  0  0  0  0  0  0  0
   -5.5085   -0.2283    0.0000 N   0  0  0  0  0  0  0  0  0  0  0  0
   -6.6232   -1.2320    0.0000 C   0  0  0  0  0  0  0  0  0  0  0  0
   -7.0868   -2.6586    0.0000 C   0  0  0  0  0  0  0  0  0  0  0  0
   -8.0905   -1.5439    0.0000 C   0  0  0  0  0  0  0  0  0  0  0  0
   -1.5000    0.0000    0.0000 C   0  0  0  0  0  0  0  0  0  0  0  0
   -0.7500   -1.2990    0.0000 N   0  0  0  0  0  0  0  0  0  0  0  0
  1  2  1  0
  2  3  1  0
  3  4  2  0
  4  5  1  0
  5  6  2  0
  6  7  1  0
  6  8  1  0
  8  9  2  0
 10  9  1  1
 10 11  1  0
 11 12  1  0
 12 13  1  0
 13 14  1  0
 14 15  1  0
 15 16  1  0
 16 17  2  0
 17 18  1  0
 18 19  1  0
 19 20  2  0
 20 21  1  0
 21 22  1  0
 22 23  2  0
 22 24  1  0
 24 25  1  0
 25 26  1  0
 26 27  1  0
 21 28  2  0
 28 29  1  0
  9  3  1  0
 14 10  1  0
 29 15  2  0
 28 18  1  0
 27 25  1  0
M  END
>  <Compound_ID>  (431) 
CHEMBL3676050

>  <Molecule Name>  (431) 
nan

>  <Molecular Weight>  (431) 
394.45

>  <AlogP>  (431) 
3.06

>  <Smiles>  (431) 
CCc1ncc(F)cc1[C@H]1CCCN1c1ccn2ncc(C(=O)NC3CC3)c2n1

>  <Standard Type>  (431) 
IC50

>  <Standard Relation>  (431) 
'='

>  <Standard Units>  (431) 
nM

>  <Standard Value>  (431) 
11.3

>  <Assay ChEMBL ID>  (431) 
CHEMBL3887070

>  <Assay Description>  (431) 
ELISA Assay: An enzyme-linked immunosorbant assay (ELISA) was used to assess TrkA kinase activity in the presence of inhibitors. Immulon 4HBX 384-well microtiter plates (Thermo part #8755) were coated with a 0.025 mg/mL solution of poly (Glu, Ala, Tyr; 6:3:1; Sigma P3899). Various concentrations of test compound, 2.5 nM TrkA (Invitrogen Corp., histidine-tagged recombinant human TrkA, cytoplasmic domain), and 500 uM ATP were incubated for 25 minutes at ambient temperature in the coated plates while shaking The assay buffer consisted of 25 mM MOPS pH 7.5, 0.005% (v/v) Triton X-100 and 5 mM MgCl2. The reaction mixture was removed from the plate by washing with PBS containing 0.1% (v/v) Tween 20. The phosphorylated reaction product was detected using 0.2 ug/mL of a phosphotyrosine specific monoclonal antibody (clone PY20) conjugated to horseradish peroxidase in conjunction with the TMB Peroxidase Substrate System (KPL).

>  <BAO Format ID>  (431) 
BAO_0000357

>  <BAO Label>  (431) 
single protein format

>  <Assay Organism>  (431) 
None

>  <Target ChEMBL ID>  (431) 
CHEMBL2815

>  <Target Name>  (431) 
Nerve growth factor receptor Trk-A

>  <Target Organism>  (431) 
Homo sapiens

>  <Target Type>  (431) 
SINGLE PROTEIN

>  <Document ChEMBL ID>  (431) 
CHEMBL3638907

>  <Source Description>  (431) 
BindingDB Database

>  <Document Journal>  (431) 
nan

>  <Document Year>  (431) 
2014.0

>  <Active>  (431) 
1.0

>  <bits>  (431) 
<rdkit.DataStructs.cDataStructs.ExplicitBitVect object at 0x00000159F78D17E0>

>  <Group>  (431) 
G2

$$$$

     RDKit          2D

 33 37  0  0  0  0  0  0  0  0999 V2000
   -3.7548   -2.1855    0.0000 O   0  0  0  0  0  0  0  0  0  0  0  0
   -2.6401   -3.1891    0.0000 C   0  0  0  0  0  0  0  0  0  0  0  0
   -2.9520   -4.6564    0.0000 N   0  0  0  0  0  0  0  0  0  0  0  0
   -4.3786   -5.1199    0.0000 C   0  0  0  0  0  0  0  0  0  0  0  0
   -4.6904   -6.5871    0.0000 C   0  0  0  0  0  0  0  0  0  0  0  0
   -6.1170   -7.0506    0.0000 N   0  0  0  0  0  0  0  0  0  0  0  0
   -7.2317   -6.0469    0.0000 C   0  0  0  0  0  0  0  0  0  0  0  0
   -8.6583   -6.5105    0.0000 C   0  0  0  0  0  0  0  0  0  0  0  0
   -8.9702   -7.9777    0.0000 O   0  0  0  0  0  0  0  0  0  0  0  0
   -7.8555   -8.9814    0.0000 C   0  0  0  0  0  0  0  0  0  0  0  0
   -6.4289   -8.5179    0.0000 C   0  0  0  0  0  0  0  0  0  0  0  0
   -1.2135   -2.7256    0.0000 C   0  0  0  0  0  0  0  0  0  0  0  0
   -0.0000   -3.6073    0.0000 C   0  0  0  0  0  0  0  0  0  0  0  0
    1.2135   -2.7256    0.0000 N   0  0  0  0  0  0  0  0  0  0  0  0
    0.7500   -1.2990    0.0000 N   0  0  0  0  0  0  0  0  0  0  0  0
    1.5000    0.0000    0.0000 C   0  0  0  0  0  0  0  0  0  0  0  0
    0.7500    1.2990    0.0000 C   0  0  0  0  0  0  0  0  0  0  0  0
   -0.7500    1.2990    0.0000 C   0  0  0  0  0  0  0  0  0  0  0  0
   -1.5000    2.5981    0.0000 N   0  0  0  0  0  0  0  0  0  0  0  0
   -2.9918    2.7549    0.0000 C   0  0  0  0  0  0  0  0  0  0  0  0
   -3.3037    4.2221    0.0000 C   0  0  0  0  0  0  0  0  0  0  0  0
   -2.0046    4.9721    0.0000 C   0  0  0  0  0  0  0  0  0  0  0  0
   -0.8899    3.9684    0.0000 C   0  0  0  0  0  0  0  0  0  0  0  0
    0.5773    4.2803    0.0000 C   0  0  0  0  0  0  0  0  0  0  0  0
    1.5810    3.1655    0.0000 C   0  0  0  0  0  0  0  0  0  0  0  0
    3.0482    3.4774    0.0000 C   0  0  0  0  0  0  0  0  0  0  0  0
    4.0519    2.3627    0.0000 F   0  0  0  0  0  0  0  0  0  0  0  0
    3.5118    4.9040    0.0000 C   0  0  0  0  0  0  0  0  0  0  0  0
    2.5081    6.0187    0.0000 C   0  0  0  0  0  0  0  0  0  0  0  0
    1.0409    5.7068    0.0000 C   0  0  0  0  0  0  0  0  0  0  0  0
    0.0372    6.8216    0.0000 F   0  0  0  0  0  0  0  0  0  0  0  0
   -1.5000    0.0000    0.0000 N   0  0  0  0  0  0  0  0  0  0  0  0
   -0.7500   -1.2990    0.0000 C   0  0  0  0  0  0  0  0  0  0  0  0
  1  2  2  0
  2  3  1  0
  3  4  1  0
  4  5  1  0
  5  6  1  0
  6  7  1  0
  7  8  1  0
  8  9  1  0
  9 10  1  0
 10 11  1  0
  2 12  1  0
 12 13  1  0
 13 14  2  0
 14 15  1  0
 15 16  1  0
 16 17  2  0
 17 18  1  0
 18 19  1  0
 19 20  1  0
 20 21  1  0
 21 22  1  0
 22 23  1  0
 23 24  1  6
 24 25  2  0
 25 26  1  0
 26 27  1  0
 26 28  2  0
 28 29  1  0
 29 30  2  0
 30 31  1  0
 18 32  2  0
 32 33  1  0
 11  6  1  0
 33 12  2  0
 33 15  1  0
 23 19  1  0
 30 24  1  0
M  END
>  <Compound_ID>  (432) 
CHEMBL3671132

>  <Molecule Name>  (432) 
nan

>  <Molecular Weight>  (432) 
456.5

>  <AlogP>  (432) 
2.41

>  <Smiles>  (432) 
O=C(NCCN1CCOCC1)c1cnn2ccc(N3CCC[C@@H]3c3cc(F)ccc3F)nc12

>  <Standard Type>  (432) 
IC50

>  <Standard Relation>  (432) 
'='

>  <Standard Units>  (432) 
nM

>  <Standard Value>  (432) 
0.95

>  <Assay ChEMBL ID>  (432) 
CHEMBL3887070

>  <Assay Description>  (432) 
ELISA Assay: An enzyme-linked immunosorbant assay (ELISA) was used to assess TrkA kinase activity in the presence of inhibitors. Immulon 4HBX 384-well microtiter plates (Thermo part #8755) were coated with a 0.025 mg/mL solution of poly (Glu, Ala, Tyr; 6:3:1; Sigma P3899). Various concentrations of test compound, 2.5 nM TrkA (Invitrogen Corp., histidine-tagged recombinant human TrkA, cytoplasmic domain), and 500 uM ATP were incubated for 25 minutes at ambient temperature in the coated plates while shaking The assay buffer consisted of 25 mM MOPS pH 7.5, 0.005% (v/v) Triton X-100 and 5 mM MgCl2. The reaction mixture was removed from the plate by washing with PBS containing 0.1% (v/v) Tween 20. The phosphorylated reaction product was detected using 0.2 ug/mL of a phosphotyrosine specific monoclonal antibody (clone PY20) conjugated to horseradish peroxidase in conjunction with the TMB Peroxidase Substrate System (KPL).

>  <BAO Format ID>  (432) 
BAO_0000357

>  <BAO Label>  (432) 
single protein format

>  <Assay Organism>  (432) 
None

>  <Target ChEMBL ID>  (432) 
CHEMBL2815

>  <Target Name>  (432) 
Nerve growth factor receptor Trk-A

>  <Target Organism>  (432) 
Homo sapiens

>  <Target Type>  (432) 
SINGLE PROTEIN

>  <Document ChEMBL ID>  (432) 
CHEMBL3638907

>  <Source Description>  (432) 
BindingDB Database

>  <Document Journal>  (432) 
nan

>  <Document Year>  (432) 
2014.0

>  <Active>  (432) 
1.0

>  <bits>  (432) 
<rdkit.DataStructs.cDataStructs.ExplicitBitVect object at 0x00000159F78D3A70>

>  <Group>  (432) 
G2

$$$$

     RDKit          2D

 28 31  0  0  0  0  0  0  0  0999 V2000
   -5.0023   -8.0543    0.0000 N   0  0  0  0  0  0  0  0  0  0  0  0
   -4.6904   -6.5871    0.0000 C   0  0  0  0  0  0  0  0  0  0  0  0
   -4.3786   -5.1199    0.0000 C   0  0  0  0  0  0  0  0  0  0  0  0
   -2.9520   -4.6564    0.0000 N   0  0  0  0  0  0  0  0  0  0  0  0
   -2.6401   -3.1891    0.0000 C   0  0  0  0  0  0  0  0  0  0  0  0
   -3.7548   -2.1855    0.0000 O   0  0  0  0  0  0  0  0  0  0  0  0
   -1.2135   -2.7256    0.0000 C   0  0  0  0  0  0  0  0  0  0  0  0
   -0.0000   -3.6073    0.0000 C   0  0  0  0  0  0  0  0  0  0  0  0
    1.2135   -2.7256    0.0000 N   0  0  0  0  0  0  0  0  0  0  0  0
    0.7500   -1.2990    0.0000 N   0  0  0  0  0  0  0  0  0  0  0  0
    1.5000    0.0000    0.0000 C   0  0  0  0  0  0  0  0  0  0  0  0
    0.7500    1.2990    0.0000 C   0  0  0  0  0  0  0  0  0  0  0  0
   -0.7500    1.2990    0.0000 C   0  0  0  0  0  0  0  0  0  0  0  0
   -1.5000    2.5981    0.0000 N   0  0  0  0  0  0  0  0  0  0  0  0
   -2.9918    2.7549    0.0000 C   0  0  0  0  0  0  0  0  0  0  0  0
   -3.3037    4.2221    0.0000 C   0  0  0  0  0  0  0  0  0  0  0  0
   -2.0046    4.9721    0.0000 C   0  0  0  0  0  0  0  0  0  0  0  0
   -0.8899    3.9684    0.0000 C   0  0  0  0  0  0  0  0  0  0  0  0
    0.5773    4.2803    0.0000 C   0  0  0  0  0  0  0  0  0  0  0  0
    1.5810    3.1655    0.0000 C   0  0  0  0  0  0  0  0  0  0  0  0
    3.0482    3.4774    0.0000 C   0  0  0  0  0  0  0  0  0  0  0  0
    4.0519    2.3627    0.0000 F   0  0  0  0  0  0  0  0  0  0  0  0
    3.5118    4.9040    0.0000 C   0  0  0  0  0  0  0  0  0  0  0  0
    2.5081    6.0187    0.0000 C   0  0  0  0  0  0  0  0  0  0  0  0
    1.0409    5.7068    0.0000 C   0  0  0  0  0  0  0  0  0  0  0  0
    0.0372    6.8216    0.0000 F   0  0  0  0  0  0  0  0  0  0  0  0
   -1.5000    0.0000    0.0000 N   0  0  0  0  0  0  0  0  0  0  0  0
   -0.7500   -1.2990    0.0000 C   0  0  0  0  0  0  0  0  0  0  0  0
  1  2  3  0
  2  3  1  0
  3  4  1  0
  4  5  1  0
  5  6  2  0
  5  7  1  0
  7  8  1  0
  8  9  2  0
  9 10  1  0
 10 11  1  0
 11 12  2  0
 12 13  1  0
 13 14  1  0
 14 15  1  0
 15 16  1  0
 16 17  1  0
 17 18  1  0
 18 19  1  0
 19 20  2  0
 20 21  1  0
 21 22  1  0
 21 23  2  0
 23 24  1  0
 24 25  2  0
 25 26  1  0
 13 27  2  0
 27 28  1  0
 28  7  2  0
 28 10  1  0
 18 14  1  0
 25 19  1  0
M  END
>  <Compound_ID>  (433) 
CHEMBL3675917

>  <Molecule Name>  (433) 
nan

>  <Molecular Weight>  (433) 
382.37

>  <AlogP>  (433) 
2.6

>  <Smiles>  (433) 
N#CCNC(=O)c1cnn2ccc(N3CCCC3c3cc(F)ccc3F)nc12

>  <Standard Type>  (433) 
IC50

>  <Standard Relation>  (433) 
'='

>  <Standard Units>  (433) 
nM

>  <Standard Value>  (433) 
0.7

>  <Assay ChEMBL ID>  (433) 
CHEMBL3887070

>  <Assay Description>  (433) 
ELISA Assay: An enzyme-linked immunosorbant assay (ELISA) was used to assess TrkA kinase activity in the presence of inhibitors. Immulon 4HBX 384-well microtiter plates (Thermo part #8755) were coated with a 0.025 mg/mL solution of poly (Glu, Ala, Tyr; 6:3:1; Sigma P3899). Various concentrations of test compound, 2.5 nM TrkA (Invitrogen Corp., histidine-tagged recombinant human TrkA, cytoplasmic domain), and 500 uM ATP were incubated for 25 minutes at ambient temperature in the coated plates while shaking The assay buffer consisted of 25 mM MOPS pH 7.5, 0.005% (v/v) Triton X-100 and 5 mM MgCl2. The reaction mixture was removed from the plate by washing with PBS containing 0.1% (v/v) Tween 20. The phosphorylated reaction product was detected using 0.2 ug/mL of a phosphotyrosine specific monoclonal antibody (clone PY20) conjugated to horseradish peroxidase in conjunction with the TMB Peroxidase Substrate System (KPL).

>  <BAO Format ID>  (433) 
BAO_0000357

>  <BAO Label>  (433) 
single protein format

>  <Assay Organism>  (433) 
None

>  <Target ChEMBL ID>  (433) 
CHEMBL2815

>  <Target Name>  (433) 
Nerve growth factor receptor Trk-A

>  <Target Organism>  (433) 
Homo sapiens

>  <Target Type>  (433) 
SINGLE PROTEIN

>  <Document ChEMBL ID>  (433) 
CHEMBL3638907

>  <Source Description>  (433) 
BindingDB Database

>  <Document Journal>  (433) 
nan

>  <Document Year>  (433) 
2014.0

>  <Active>  (433) 
1.0

>  <bits>  (433) 
<rdkit.DataStructs.cDataStructs.ExplicitBitVect object at 0x00000159F78D2810>

>  <Group>  (433) 
G2

$$$$

     RDKit          2D

 35 38  0  0  0  0  0  0  0  0999 V2000
   -2.9520   -4.6564    0.0000 C   0  0  0  0  0  0  0  0  0  0  0  0
   -2.6401   -3.1891    0.0000 C   0  0  0  0  0  0  0  0  0  0  0  0
   -3.7548   -2.1855    0.0000 C   0  0  0  0  0  0  0  0  0  0  0  0
   -5.1814   -2.6490    0.0000 O   0  0  0  0  0  0  0  0  0  0  0  0
   -1.2135   -2.7256    0.0000 N   0  0  0  0  0  0  0  0  0  0  0  0
   -0.0000   -3.6073    0.0000 C   0  0  0  0  0  0  0  0  0  0  0  0
    1.2135   -2.7256    0.0000 C   0  0  0  0  0  0  0  0  0  0  0  0
    2.6401   -3.1891    0.0000 C   0  0  0  0  0  0  0  0  0  0  0  0
    3.7548   -2.1855    0.0000 O   0  0  0  0  0  0  0  0  0  0  0  0
    2.9520   -4.6564    0.0000 C   0  0  0  0  0  0  0  0  0  0  0  0
    1.8373   -5.6601    0.0000 C   0  0  0  0  0  0  0  0  0  0  0  0
    2.1491   -7.1273    0.0000 N   0  0  0  0  0  0  0  0  0  0  0  0
    3.5757   -7.5908    0.0000 C   0  0  0  0  0  0  0  0  0  0  0  0
    4.6904   -6.5871    0.0000 C   0  0  0  0  0  0  0  0  0  0  0  0
    6.1170   -7.0506    0.0000 N   0  0  0  0  0  0  0  0  0  0  0  0
    6.4289   -8.5179    0.0000 C   0  0  0  0  0  0  0  0  0  0  0  0
    5.3142   -9.5216    0.0000 O   0  0  0  0  0  0  0  0  0  0  0  0
    7.8555   -8.9814    0.0000 C   0  0  0  0  0  0  0  0  0  0  0  0
    8.1673  -10.4486    0.0000 C   0  0  0  0  0  0  0  0  0  0  0  0
    7.0526  -11.4523    0.0000 C   0  0  0  0  0  0  0  0  0  0  0  0
    7.3645  -12.9195    0.0000 C   0  0  0  0  0  0  0  0  0  0  0  0
    8.7911  -13.3831    0.0000 C   0  0  0  0  0  0  0  0  0  0  0  0
    9.1029  -14.8503    0.0000 O   0  0  0  0  0  0  0  0  0  0  0  0
    7.9882  -15.8540    0.0000 C   0  0  0  0  0  0  0  0  0  0  0  0
    8.3001  -17.3212    0.0000 F   0  0  0  0  0  0  0  0  0  0  0  0
    6.5616  -15.3904    0.0000 F   0  0  0  0  0  0  0  0  0  0  0  0
    9.9058  -12.3794    0.0000 C   0  0  0  0  0  0  0  0  0  0  0  0
    9.5939  -10.9121    0.0000 C   0  0  0  0  0  0  0  0  0  0  0  0
    4.3786   -5.1199    0.0000 C   0  0  0  0  0  0  0  0  0  0  0  0
    0.7500   -1.2990    0.0000 C   0  0  0  0  0  0  0  0  0  0  0  0
    1.5000    0.0000    0.0000 C   0  0  0  0  0  0  0  0  0  0  0  0
    0.7500    1.2990    0.0000 N   0  0  0  0  0  0  0  0  0  0  0  0
   -0.7500    1.2990    0.0000 C   0  0  0  0  0  0  0  0  0  0  0  0
   -1.5000    0.0000    0.0000 N   0  0  0  0  0  0  0  0  0  0  0  0
   -0.7500   -1.2990    0.0000 C   0  0  0  0  0  0  0  0  0  0  0  0
  2  1  1  1
  2  3  1  0
  3  4  1  0
  2  5  1  0
  5  6  1  0
  6  7  2  0
  7  8  1  0
  8  9  2  0
  8 10  1  0
 10 11  2  0
 11 12  1  0
 12 13  2  0
 13 14  1  0
 14 15  1  0
 15 16  1  0
 16 17  2  0
 16 18  1  0
 18 19  1  0
 19 20  2  0
 20 21  1  0
 21 22  2  0
 22 23  1  0
 23 24  1  0
 24 25  1  0
 24 26  1  0
 22 27  1  0
 27 28  2  0
 14 29  2  0
  7 30  1  0
 30 31  2  0
 31 32  1  0
 32 33  2  0
 33 34  1  0
 34 35  2  0
 35  5  1  0
 29 10  1  0
 35 30  1  0
 28 19  1  0
M  END
>  <Compound_ID>  (434) 
CHEMBL3671407

>  <Molecule Name>  (434) 
nan

>  <Molecular Weight>  (434) 
481.46

>  <AlogP>  (434) 
3.39

>  <Smiles>  (434) 
C[C@@H](CO)n1cc(C(=O)c2cncc(NC(=O)Cc3ccc(OC(F)F)cc3)c2)c2cncnc21

>  <Standard Type>  (434) 
IC50

>  <Standard Relation>  (434) 
'='

>  <Standard Units>  (434) 
nM

>  <Standard Value>  (434) 
52.4

>  <Assay ChEMBL ID>  (434) 
CHEMBL3887033

>  <Assay Description>  (434) 
Enzyme Assay: Isolated TRK Enzyme assays use the HTRF KinEASE-TK kit (Cisbio Cat# 62TK0PEJ) with recombinant His-tagged cytoplasmic domains of each TRK receptor sourced from Invitrogen (see table below). This activity-assay measures the phosphorylation of tyrosine residues within a substrate from the HTRF kit which has been validated by Cisbio for a variety of tyrosine kinases including the TRK receptors. Assay details: Target:TRKA; Invitrogen Cat# PV3144; Amino acids:aa 441-796; FAC enzyme:4nM; FAC ATP:40uM; Assay Reaction Time:35min.

>  <BAO Format ID>  (434) 
BAO_0000357

>  <BAO Label>  (434) 
single protein format

>  <Assay Organism>  (434) 
None

>  <Target ChEMBL ID>  (434) 
CHEMBL2815

>  <Target Name>  (434) 
Nerve growth factor receptor Trk-A

>  <Target Organism>  (434) 
Homo sapiens

>  <Target Type>  (434) 
SINGLE PROTEIN

>  <Document ChEMBL ID>  (434) 
CHEMBL3639348

>  <Source Description>  (434) 
BindingDB Database

>  <Document Journal>  (434) 
nan

>  <Document Year>  (434) 
2014.0

>  <Active>  (434) 
1.0

>  <bits>  (434) 
<rdkit.DataStructs.cDataStructs.ExplicitBitVect object at 0x00000159F78D3C30>

>  <Group>  (434) 
G2

$$$$

     RDKit          2D

 31 35  0  0  0  0  0  0  0  0999 V2000
   -4.2879   -2.5234    0.0000 O   0  0  0  0  0  0  0  0  0  0  0  0
   -5.0828   -3.7955    0.0000 C   0  0  0  0  0  0  0  0  0  0  0  0
   -6.5819   -3.7431    0.0000 O   0  0  0  0  0  0  0  0  0  0  0  0
   -4.3786   -5.1199    0.0000 C   0  0  0  0  0  0  0  0  0  0  0  0
   -2.9520   -4.6564    0.0000 C   0  0  0  0  0  0  0  0  0  0  0  0
   -1.8373   -5.6601    0.0000 O   0  0  0  0  0  0  0  0  0  0  0  0
   -2.6401   -3.1891    0.0000 N   0  0  0  0  0  0  0  0  0  0  0  0
   -1.2135   -2.7256    0.0000 C   0  0  0  0  0  0  0  0  0  0  0  0
   -0.0000   -3.6073    0.0000 C   0  0  0  0  0  0  0  0  0  0  0  0
    1.2135   -2.7256    0.0000 N   0  0  0  0  0  0  0  0  0  0  0  0
    0.7500   -1.2990    0.0000 N   0  0  0  0  0  0  0  0  0  0  0  0
    1.5000    0.0000    0.0000 C   0  0  0  0  0  0  0  0  0  0  0  0
    0.7500    1.2990    0.0000 C   0  0  0  0  0  0  0  0  0  0  0  0
   -0.7500    1.2990    0.0000 C   0  0  0  0  0  0  0  0  0  0  0  0
   -1.5000    2.5981    0.0000 N   0  0  0  0  0  0  0  0  0  0  0  0
   -2.9918    2.7549    0.0000 C   0  0  0  0  0  0  0  0  0  0  0  0
   -3.3037    4.2221    0.0000 C   0  0  0  0  0  0  0  0  0  0  0  0
   -2.0046    4.9721    0.0000 C   0  0  0  0  0  0  0  0  0  0  0  0
   -0.8899    3.9684    0.0000 C   0  0  0  0  0  0  0  0  0  0  0  0
    0.5773    4.2803    0.0000 C   0  0  0  0  0  0  0  0  0  0  0  0
    1.5810    3.1655    0.0000 C   0  0  0  0  0  0  0  0  0  0  0  0
    3.0482    3.4774    0.0000 C   0  0  0  0  0  0  0  0  0  0  0  0
    4.0519    2.3627    0.0000 F   0  0  0  0  0  0  0  0  0  0  0  0
    3.5118    4.9040    0.0000 C   0  0  0  0  0  0  0  0  0  0  0  0
    2.5081    6.0187    0.0000 C   0  0  0  0  0  0  0  0  0  0  0  0
    1.0409    5.7068    0.0000 C   0  0  0  0  0  0  0  0  0  0  0  0
    0.0372    6.8216    0.0000 F   0  0  0  0  0  0  0  0  0  0  0  0
   -1.5000    0.0000    0.0000 N   0  0  0  0  0  0  0  0  0  0  0  0
   -0.7500   -1.2990    0.0000 C   0  0  0  0  0  0  0  0  0  0  0  0
   -5.5606   -6.0434    0.0000 C   0  0  0  0  0  0  0  0  0  0  0  0
   -4.1698   -6.6053    0.0000 C   0  0  0  0  0  0  0  0  0  0  0  0
  1  2  2  0
  2  3  1  0
  2  4  1  0
  4  5  1  0
  5  6  2  0
  5  7  1  0
  7  8  1  0
  8  9  1  0
  9 10  2  0
 10 11  1  0
 11 12  1  0
 12 13  2  0
 13 14  1  0
 14 15  1  0
 15 16  1  0
 16 17  1  0
 17 18  1  0
 18 19  1  0
 19 20  1  6
 20 21  2  0
 21 22  1  0
 22 23  1  0
 22 24  2  0
 24 25  1  0
 25 26  2  0
 26 27  1  0
 14 28  2  0
 28 29  1  0
  4 30  1  0
 30 31  1  0
 31  4  1  0
 29  8  2  0
 29 11  1  0
 19 15  1  0
 26 20  1  0
M  END
>  <Compound_ID>  (435) 
CHEMBL4112527

>  <Molecule Name>  (435) 
nan

>  <Molecular Weight>  (435) 
427.41

>  <AlogP>  (435) 
3.15

>  <Smiles>  (435) 
O=C(O)C1(C(=O)Nc2cnn3ccc(N4CCC[C@@H]4c4cc(F)ccc4F)nc23)CC1

>  <Standard Type>  (435) 
IC50

>  <Standard Relation>  (435) 
'='

>  <Standard Units>  (435) 
nM

>  <Standard Value>  (435) 
98.2

>  <Assay ChEMBL ID>  (435) 
CHEMBL3887076

>  <Assay Description>  (435) 
ELISA Assay: An enzyme-linked immunosorbant assay (ELISA) was used to assess TrkA kinase activity in the presence of inhibitors. Immulon 4HBX 384-well microtiter plates (Thermo part #8755) were coated with a 0.025 mg/mL solution of poly (Glu, Ala, Tyr; 6:3:1; Sigma P3899). Various concentrations of test compound, 2.5 nM TrkA (Invitrogen Corp., histidine-tagged recombinant human TrkA, cytoplasmic domain), and 500 uM ATP were incubated for 25 minutes at ambient temperature in the coated plates while shaking. The assay buffer consisted of 25 mM MOPS pH 7.5, 0.005% (v/v) Triton X-100 and 5 mM MgCl2. The reaction mixture was removed from the plate by washing with PBS containing 0.1% (v/v) Tween 20. The phosphorylated reaction product was detected using 0.2 ug/mL of a phosphotyrosine specific monoclonal antibody (clone PY20) conjugated to horseradish peroxidase in conjunction with the TMB Peroxidase Substrate System (KPL).

>  <BAO Format ID>  (435) 
BAO_0000357

>  <BAO Label>  (435) 
single protein format

>  <Assay Organism>  (435) 
None

>  <Target ChEMBL ID>  (435) 
CHEMBL2815

>  <Target Name>  (435) 
Nerve growth factor receptor Trk-A

>  <Target Organism>  (435) 
Homo sapiens

>  <Target Type>  (435) 
SINGLE PROTEIN

>  <Document ChEMBL ID>  (435) 
CHEMBL3886151

>  <Source Description>  (435) 
BindingDB Database

>  <Document Journal>  (435) 
nan

>  <Document Year>  (435) 
2014.0

>  <Active>  (435) 
1.0

>  <bits>  (435) 
<rdkit.DataStructs.cDataStructs.ExplicitBitVect object at 0x00000159F78D3060>

>  <Group>  (435) 
G2

$$$$

     RDKit          2D

 30 34  0  0  0  0  0  0  0  0999 V2000
   -5.7870   -2.4711    0.0000 N   0  0  0  0  0  0  0  0  0  0  0  0
   -5.0828   -3.7955    0.0000 C   0  0  0  0  0  0  0  0  0  0  0  0
   -4.3786   -5.1199    0.0000 C   0  0  0  0  0  0  0  0  0  0  0  0
   -2.9520   -4.6564    0.0000 C   0  0  0  0  0  0  0  0  0  0  0  0
   -1.8373   -5.6601    0.0000 O   0  0  0  0  0  0  0  0  0  0  0  0
   -2.6401   -3.1891    0.0000 N   0  0  0  0  0  0  0  0  0  0  0  0
   -1.2135   -2.7256    0.0000 C   0  0  0  0  0  0  0  0  0  0  0  0
   -0.0000   -3.6073    0.0000 C   0  0  0  0  0  0  0  0  0  0  0  0
    1.2135   -2.7256    0.0000 N   0  0  0  0  0  0  0  0  0  0  0  0
    0.7500   -1.2990    0.0000 N   0  0  0  0  0  0  0  0  0  0  0  0
    1.5000    0.0000    0.0000 C   0  0  0  0  0  0  0  0  0  0  0  0
    0.7500    1.2990    0.0000 C   0  0  0  0  0  0  0  0  0  0  0  0
   -0.7500    1.2990    0.0000 C   0  0  0  0  0  0  0  0  0  0  0  0
   -1.5000    2.5981    0.0000 N   0  0  0  0  0  0  0  0  0  0  0  0
   -2.9918    2.7549    0.0000 C   0  0  0  0  0  0  0  0  0  0  0  0
   -3.3037    4.2221    0.0000 C   0  0  0  0  0  0  0  0  0  0  0  0
   -2.0046    4.9721    0.0000 C   0  0  0  0  0  0  0  0  0  0  0  0
   -0.8899    3.9684    0.0000 C   0  0  0  0  0  0  0  0  0  0  0  0
    0.5773    4.2803    0.0000 C   0  0  0  0  0  0  0  0  0  0  0  0
    1.5810    3.1655    0.0000 C   0  0  0  0  0  0  0  0  0  0  0  0
    3.0482    3.4774    0.0000 C   0  0  0  0  0  0  0  0  0  0  0  0
    4.0519    2.3627    0.0000 F   0  0  0  0  0  0  0  0  0  0  0  0
    3.5118    4.9040    0.0000 C   0  0  0  0  0  0  0  0  0  0  0  0
    2.5081    6.0187    0.0000 C   0  0  0  0  0  0  0  0  0  0  0  0
    1.0409    5.7068    0.0000 C   0  0  0  0  0  0  0  0  0  0  0  0
    0.0372    6.8216    0.0000 F   0  0  0  0  0  0  0  0  0  0  0  0
   -1.5000    0.0000    0.0000 N   0  0  0  0  0  0  0  0  0  0  0  0
   -0.7500   -1.2990    0.0000 C   0  0  0  0  0  0  0  0  0  0  0  0
   -5.5606   -6.0434    0.0000 C   0  0  0  0  0  0  0  0  0  0  0  0
   -4.1698   -6.6053    0.0000 C   0  0  0  0  0  0  0  0  0  0  0  0
  1  2  3  0
  2  3  1  0
  3  4  1  0
  4  5  2  0
  4  6  1  0
  6  7  1  0
  7  8  1  0
  8  9  2  0
  9 10  1  0
 10 11  1  0
 11 12  2  0
 12 13  1  0
 13 14  1  0
 14 15  1  0
 15 16  1  0
 16 17  1  0
 17 18  1  0
 18 19  1  6
 19 20  2  0
 20 21  1  0
 21 22  1  0
 21 23  2  0
 23 24  1  0
 24 25  2  0
 25 26  1  0
 13 27  2  0
 27 28  1  0
  3 29  1  0
 29 30  1  0
 30  3  1  0
 28  7  2  0
 28 10  1  0
 18 14  1  0
 25 19  1  0
M  END
>  <Compound_ID>  (436) 
CHEMBL4107236

>  <Molecule Name>  (436) 
nan

>  <Molecular Weight>  (436) 
408.41

>  <AlogP>  (436) 
3.59

>  <Smiles>  (436) 
N#CC1(C(=O)Nc2cnn3ccc(N4CCC[C@@H]4c4cc(F)ccc4F)nc23)CC1

>  <Standard Type>  (436) 
IC50

>  <Standard Relation>  (436) 
'='

>  <Standard Units>  (436) 
nM

>  <Standard Value>  (436) 
4.2

>  <Assay ChEMBL ID>  (436) 
CHEMBL3887076

>  <Assay Description>  (436) 
ELISA Assay: An enzyme-linked immunosorbant assay (ELISA) was used to assess TrkA kinase activity in the presence of inhibitors. Immulon 4HBX 384-well microtiter plates (Thermo part #8755) were coated with a 0.025 mg/mL solution of poly (Glu, Ala, Tyr; 6:3:1; Sigma P3899). Various concentrations of test compound, 2.5 nM TrkA (Invitrogen Corp., histidine-tagged recombinant human TrkA, cytoplasmic domain), and 500 uM ATP were incubated for 25 minutes at ambient temperature in the coated plates while shaking. The assay buffer consisted of 25 mM MOPS pH 7.5, 0.005% (v/v) Triton X-100 and 5 mM MgCl2. The reaction mixture was removed from the plate by washing with PBS containing 0.1% (v/v) Tween 20. The phosphorylated reaction product was detected using 0.2 ug/mL of a phosphotyrosine specific monoclonal antibody (clone PY20) conjugated to horseradish peroxidase in conjunction with the TMB Peroxidase Substrate System (KPL).

>  <BAO Format ID>  (436) 
BAO_0000357

>  <BAO Label>  (436) 
single protein format

>  <Assay Organism>  (436) 
None

>  <Target ChEMBL ID>  (436) 
CHEMBL2815

>  <Target Name>  (436) 
Nerve growth factor receptor Trk-A

>  <Target Organism>  (436) 
Homo sapiens

>  <Target Type>  (436) 
SINGLE PROTEIN

>  <Document ChEMBL ID>  (436) 
CHEMBL3886151

>  <Source Description>  (436) 
BindingDB Database

>  <Document Journal>  (436) 
nan

>  <Document Year>  (436) 
2014.0

>  <Active>  (436) 
1.0

>  <bits>  (436) 
<rdkit.DataStructs.cDataStructs.ExplicitBitVect object at 0x00000159F78D3DF0>

>  <Group>  (436) 
G2

$$$$

     RDKit          2D

 30 33  0  0  0  0  0  0  0  0999 V2000
   -3.7548   -2.1855    0.0000 O   0  0  0  0  0  0  0  0  0  0  0  0
   -2.6401   -3.1891    0.0000 C   0  0  0  0  0  0  0  0  0  0  0  0
   -2.9520   -4.6564    0.0000 N   0  0  0  0  0  0  0  0  0  0  0  0
   -4.3786   -5.1199    0.0000 C   0  0  0  0  0  0  0  0  0  0  0  0
   -4.6904   -6.5871    0.0000 C   0  0  0  0  0  0  0  0  0  0  0  0
   -3.5757   -7.5908    0.0000 O   0  0  0  0  0  0  0  0  0  0  0  0
   -6.1170   -7.0506    0.0000 C   0  0  0  0  0  0  0  0  0  0  0  0
   -6.4289   -8.5179    0.0000 O   0  0  0  0  0  0  0  0  0  0  0  0
   -1.2135   -2.7256    0.0000 C   0  0  0  0  0  0  0  0  0  0  0  0
   -0.0000   -3.6073    0.0000 C   0  0  0  0  0  0  0  0  0  0  0  0
    1.2135   -2.7256    0.0000 N   0  0  0  0  0  0  0  0  0  0  0  0
    0.7500   -1.2990    0.0000 N   0  0  0  0  0  0  0  0  0  0  0  0
    1.5000    0.0000    0.0000 C   0  0  0  0  0  0  0  0  0  0  0  0
    0.7500    1.2990    0.0000 C   0  0  0  0  0  0  0  0  0  0  0  0
   -0.7500    1.2990    0.0000 C   0  0  0  0  0  0  0  0  0  0  0  0
   -1.5000    2.5981    0.0000 N   0  0  0  0  0  0  0  0  0  0  0  0
   -2.9918    2.7549    0.0000 C   0  0  0  0  0  0  0  0  0  0  0  0
   -3.3037    4.2221    0.0000 C   0  0  0  0  0  0  0  0  0  0  0  0
   -2.0046    4.9721    0.0000 C   0  0  0  0  0  0  0  0  0  0  0  0
   -0.8899    3.9684    0.0000 C   0  0  0  0  0  0  0  0  0  0  0  0
    0.5773    4.2803    0.0000 C   0  0  0  0  0  0  0  0  0  0  0  0
    1.5810    3.1655    0.0000 C   0  0  0  0  0  0  0  0  0  0  0  0
    3.0482    3.4774    0.0000 C   0  0  0  0  0  0  0  0  0  0  0  0
    4.0519    2.3627    0.0000 F   0  0  0  0  0  0  0  0  0  0  0  0
    3.5118    4.9040    0.0000 C   0  0  0  0  0  0  0  0  0  0  0  0
    2.5081    6.0187    0.0000 C   0  0  0  0  0  0  0  0  0  0  0  0
    1.0409    5.7068    0.0000 C   0  0  0  0  0  0  0  0  0  0  0  0
    0.0372    6.8216    0.0000 F   0  0  0  0  0  0  0  0  0  0  0  0
   -1.5000    0.0000    0.0000 N   0  0  0  0  0  0  0  0  0  0  0  0
   -0.7500   -1.2990    0.0000 C   0  0  0  0  0  0  0  0  0  0  0  0
  1  2  2  0
  2  3  1  0
  3  4  1  0
  4  5  1  0
  5  6  1  6
  5  7  1  0
  7  8  1  0
  2  9  1  0
  9 10  1  0
 10 11  2  0
 11 12  1  0
 12 13  1  0
 13 14  2  0
 14 15  1  0
 15 16  1  0
 16 17  1  0
 17 18  1  0
 18 19  1  0
 19 20  1  0
 20 21  1  6
 21 22  2  0
 22 23  1  0
 23 24  1  0
 23 25  2  0
 25 26  1  0
 26 27  2  0
 27 28  1  0
 15 29  2  0
 29 30  1  0
 30  9  2  0
 30 12  1  0
 20 16  1  0
 27 21  1  0
M  END
>  <Compound_ID>  (437) 
CHEMBL3671157

>  <Molecule Name>  (437) 
nan

>  <Molecular Weight>  (437) 
417.42

>  <AlogP>  (437) 
1.43

>  <Smiles>  (437) 
O=C(NC[C@H](O)CO)c1cnn2ccc(N3CCC[C@@H]3c3cc(F)ccc3F)nc12

>  <Standard Type>  (437) 
IC50

>  <Standard Relation>  (437) 
'='

>  <Standard Units>  (437) 
nM

>  <Standard Value>  (437) 
1.3

>  <Assay ChEMBL ID>  (437) 
CHEMBL3887070

>  <Assay Description>  (437) 
ELISA Assay: An enzyme-linked immunosorbant assay (ELISA) was used to assess TrkA kinase activity in the presence of inhibitors. Immulon 4HBX 384-well microtiter plates (Thermo part #8755) were coated with a 0.025 mg/mL solution of poly (Glu, Ala, Tyr; 6:3:1; Sigma P3899). Various concentrations of test compound, 2.5 nM TrkA (Invitrogen Corp., histidine-tagged recombinant human TrkA, cytoplasmic domain), and 500 uM ATP were incubated for 25 minutes at ambient temperature in the coated plates while shaking The assay buffer consisted of 25 mM MOPS pH 7.5, 0.005% (v/v) Triton X-100 and 5 mM MgCl2. The reaction mixture was removed from the plate by washing with PBS containing 0.1% (v/v) Tween 20. The phosphorylated reaction product was detected using 0.2 ug/mL of a phosphotyrosine specific monoclonal antibody (clone PY20) conjugated to horseradish peroxidase in conjunction with the TMB Peroxidase Substrate System (KPL).

>  <BAO Format ID>  (437) 
BAO_0000357

>  <BAO Label>  (437) 
single protein format

>  <Assay Organism>  (437) 
None

>  <Target ChEMBL ID>  (437) 
CHEMBL2815

>  <Target Name>  (437) 
Nerve growth factor receptor Trk-A

>  <Target Organism>  (437) 
Homo sapiens

>  <Target Type>  (437) 
SINGLE PROTEIN

>  <Document ChEMBL ID>  (437) 
CHEMBL3638907

>  <Source Description>  (437) 
BindingDB Database

>  <Document Journal>  (437) 
nan

>  <Document Year>  (437) 
2014.0

>  <Active>  (437) 
1.0

>  <bits>  (437) 
<rdkit.DataStructs.cDataStructs.ExplicitBitVect object at 0x00000159F78D2030>

>  <Group>  (437) 
G2

$$$$

     RDKit          2D

 32 36  0  0  0  0  0  0  0  0999 V2000
   -2.9520   -4.6564    0.0000 C   0  0  0  0  0  0  0  0  0  0  0  0
   -2.6401   -3.1891    0.0000 C   0  0  0  0  0  0  0  0  0  0  0  0
   -3.7548   -2.1855    0.0000 C   0  0  0  0  0  0  0  0  0  0  0  0
   -1.2135   -2.7256    0.0000 N   0  0  0  0  0  0  0  0  0  0  0  0
   -0.0000   -3.6073    0.0000 C   0  0  0  0  0  0  0  0  0  0  0  0
    1.2135   -2.7256    0.0000 C   0  0  0  0  0  0  0  0  0  0  0  0
    2.6401   -3.1891    0.0000 C   0  0  0  0  0  0  0  0  0  0  0  0
    3.7548   -2.1855    0.0000 O   0  0  0  0  0  0  0  0  0  0  0  0
    2.9520   -4.6564    0.0000 C   0  0  0  0  0  0  0  0  0  0  0  0
    1.8373   -5.6601    0.0000 C   0  0  0  0  0  0  0  0  0  0  0  0
    2.1491   -7.1273    0.0000 N   0  0  0  0  0  0  0  0  0  0  0  0
    3.5757   -7.5908    0.0000 C   0  0  0  0  0  0  0  0  0  0  0  0
    4.6904   -6.5871    0.0000 C   0  0  0  0  0  0  0  0  0  0  0  0
    6.1170   -7.0506    0.0000 N   0  0  0  0  0  0  0  0  0  0  0  0
    6.4289   -8.5179    0.0000 C   0  0  0  0  0  0  0  0  0  0  0  0
    5.3142   -9.5216    0.0000 O   0  0  0  0  0  0  0  0  0  0  0  0
    7.8555   -8.9814    0.0000 C   0  0  0  0  0  0  0  0  0  0  0  0
    8.1673  -10.4486    0.0000 N   0  0  0  0  0  0  0  0  0  0  0  0
    9.5377  -11.0587    0.0000 C   0  0  0  0  0  0  0  0  0  0  0  0
    9.3809  -12.5505    0.0000 C   0  0  0  0  0  0  0  0  0  0  0  0
   10.4956  -13.5542    0.0000 C   0  0  0  0  0  0  0  0  0  0  0  0
   11.9628  -13.8661    0.0000 C   0  0  0  0  0  0  0  0  0  0  0  0
   10.9591  -14.9808    0.0000 C   0  0  0  0  0  0  0  0  0  0  0  0
    7.9136  -12.8624    0.0000 N   0  0  0  0  0  0  0  0  0  0  0  0
    7.1636  -11.5633    0.0000 N   0  0  0  0  0  0  0  0  0  0  0  0
    4.3786   -5.1199    0.0000 C   0  0  0  0  0  0  0  0  0  0  0  0
    0.7500   -1.2990    0.0000 C   0  0  0  0  0  0  0  0  0  0  0  0
    1.5000    0.0000    0.0000 C   0  0  0  0  0  0  0  0  0  0  0  0
    0.7500    1.2990    0.0000 N   0  0  0  0  0  0  0  0  0  0  0  0
   -0.7500    1.2990    0.0000 C   0  0  0  0  0  0  0  0  0  0  0  0
   -1.5000    0.0000    0.0000 C   0  0  0  0  0  0  0  0  0  0  0  0
   -0.7500   -1.2990    0.0000 C   0  0  0  0  0  0  0  0  0  0  0  0
  1  2  1  0
  2  3  1  0
  2  4  1  0
  4  5  1  0
  5  6  2  0
  6  7  1  0
  7  8  2  0
  7  9  1  0
  9 10  2  0
 10 11  1  0
 11 12  2  0
 12 13  1  0
 13 14  1  0
 14 15  1  0
 15 16  2  0
 15 17  1  0
 17 18  1  0
 18 19  1  0
 19 20  2  0
 20 21  1  0
 21 22  1  0
 22 23  1  0
 20 24  1  0
 24 25  2  0
 13 26  2  0
  6 27  1  0
 27 28  2  0
 28 29  1  0
 29 30  2  0
 30 31  1  0
 31 32  2  0
 32  4  1  0
 26  9  1  0
 32 27  1  0
 25 18  1  0
 23 21  1  0
M  END
>  <Compound_ID>  (438) 
CHEMBL3900668

>  <Molecule Name>  (438) 
nan

>  <Molecular Weight>  (438) 
429.48

>  <AlogP>  (438) 
3.35

>  <Smiles>  (438) 
CC(C)n1cc(C(=O)c2cncc(NC(=O)Cn3cc(C4CC4)nn3)c2)c2cnccc21

>  <Standard Type>  (438) 
IC50

>  <Standard Relation>  (438) 
'='

>  <Standard Units>  (438) 
nM

>  <Standard Value>  (438) 
68.2

>  <Assay ChEMBL ID>  (438) 
CHEMBL3887111

>  <Assay Description>  (438) 
HTRF Assay: Isolated TRK Enzyme assays use the HTRF KinEASE-TK kit (Cisbio Cat#62TK0PEJ) with recombinant His-tagged cytoplasmic domains of each TRK receptor sourced from Invitrogen (see table below). This activity-assay measures the phosphorylation of tyrosine residues within a substrate from the HTRF kit which has been validated by Cisbio for a variety of tyrosine kinases including the TRK receptors.Assay Details: Invitrogen Amino FAC FAC Assay ReactionTarget Cat# acids enzyme ATP TimeTRKA PV3144 aa 441-4 nM 40 uM 35 min (NTRK1) 796 TRKB PV3616 aa 526-1 nM 1.4 uM 40 min (NTRK2) 838 TRKC PV3617 aa 510- 10 nM 15 uM 30 min (NTRK3) 8250.5 mM stock solutions of test compounds are prepared and serially diluted in 100% DMSO. A standard curve using the compound of Example 135 disclosed in WO2005/116035 of 150 uM is also prepared on each test plate. High percentage effect (HPE) is defined by 150 uM.

>  <BAO Format ID>  (438) 
BAO_0000357

>  <BAO Label>  (438) 
single protein format

>  <Assay Organism>  (438) 
None

>  <Target ChEMBL ID>  (438) 
CHEMBL2815

>  <Target Name>  (438) 
Nerve growth factor receptor Trk-A

>  <Target Organism>  (438) 
Homo sapiens

>  <Target Type>  (438) 
SINGLE PROTEIN

>  <Document ChEMBL ID>  (438) 
CHEMBL3886170

>  <Source Description>  (438) 
BindingDB Database

>  <Document Journal>  (438) 
nan

>  <Document Year>  (438) 
2015.0

>  <Active>  (438) 
1.0

>  <bits>  (438) 
<rdkit.DataStructs.cDataStructs.ExplicitBitVect object at 0x00000159F78D0350>

>  <Group>  (438) 
G2

$$$$

     RDKit          2D

 34 37  0  0  0  0  0  0  0  0999 V2000
   -2.9520   -4.6564    0.0000 C   0  0  0  0  0  0  0  0  0  0  0  0
   -2.6401   -3.1891    0.0000 C   0  0  0  0  0  0  0  0  0  0  0  0
   -3.7548   -2.1855    0.0000 C   0  0  0  0  0  0  0  0  0  0  0  0
   -5.1814   -2.6490    0.0000 O   0  0  0  0  0  0  0  0  0  0  0  0
   -1.2135   -2.7256    0.0000 N   0  0  0  0  0  0  0  0  0  0  0  0
   -0.0000   -3.6073    0.0000 C   0  0  0  0  0  0  0  0  0  0  0  0
    1.2135   -2.7256    0.0000 C   0  0  0  0  0  0  0  0  0  0  0  0
    2.6401   -3.1891    0.0000 C   0  0  0  0  0  0  0  0  0  0  0  0
    3.7548   -2.1855    0.0000 O   0  0  0  0  0  0  0  0  0  0  0  0
    2.9520   -4.6564    0.0000 C   0  0  0  0  0  0  0  0  0  0  0  0
    1.8373   -5.6601    0.0000 C   0  0  0  0  0  0  0  0  0  0  0  0
    2.1491   -7.1273    0.0000 N   0  0  0  0  0  0  0  0  0  0  0  0
    3.5757   -7.5908    0.0000 C   0  0  0  0  0  0  0  0  0  0  0  0
    4.6904   -6.5871    0.0000 C   0  0  0  0  0  0  0  0  0  0  0  0
    6.1170   -7.0506    0.0000 N   0  0  0  0  0  0  0  0  0  0  0  0
    6.4289   -8.5179    0.0000 C   0  0  0  0  0  0  0  0  0  0  0  0
    5.3142   -9.5216    0.0000 O   0  0  0  0  0  0  0  0  0  0  0  0
    7.8555   -8.9814    0.0000 C   0  0  0  0  0  0  0  0  0  0  0  0
    8.1673  -10.4486    0.0000 N   0  0  0  0  0  0  0  0  0  0  0  0
    9.5377  -11.0587    0.0000 C   0  0  0  0  0  0  0  0  0  0  0  0
    9.3809  -12.5505    0.0000 C   0  0  0  0  0  0  0  0  0  0  0  0
    7.9136  -12.8624    0.0000 C   0  0  0  0  0  0  0  0  0  0  0  0
    7.3035  -14.2327    0.0000 C   0  0  0  0  0  0  0  0  0  0  0  0
    6.6934  -15.6030    0.0000 F   0  0  0  0  0  0  0  0  0  0  0  0
    5.9332  -13.6226    0.0000 F   0  0  0  0  0  0  0  0  0  0  0  0
    8.6739  -14.8428    0.0000 F   0  0  0  0  0  0  0  0  0  0  0  0
    7.1636  -11.5633    0.0000 N   0  0  0  0  0  0  0  0  0  0  0  0
    4.3786   -5.1199    0.0000 C   0  0  0  0  0  0  0  0  0  0  0  0
    0.7500   -1.2990    0.0000 C   0  0  0  0  0  0  0  0  0  0  0  0
    1.5000    0.0000    0.0000 C   0  0  0  0  0  0  0  0  0  0  0  0
    0.7500    1.2990    0.0000 N   0  0  0  0  0  0  0  0  0  0  0  0
   -0.7500    1.2990    0.0000 C   0  0  0  0  0  0  0  0  0  0  0  0
   -1.5000    0.0000    0.0000 C   0  0  0  0  0  0  0  0  0  0  0  0
   -0.7500   -1.2990    0.0000 C   0  0  0  0  0  0  0  0  0  0  0  0
  1  2  1  0
  2  3  1  0
  3  4  1  0
  2  5  1  0
  5  6  1  0
  6  7  2  0
  7  8  1  0
  8  9  2  0
  8 10  1  0
 10 11  2  0
 11 12  1  0
 12 13  2  0
 13 14  1  0
 14 15  1  0
 15 16  1  0
 16 17  2  0
 16 18  1  0
 18 19  1  0
 19 20  1  0
 20 21  2  0
 21 22  1  0
 22 23  1  0
 23 24  1  0
 23 25  1  0
 23 26  1  0
 22 27  2  0
 14 28  2  0
  7 29  1  0
 29 30  2  0
 30 31  1  0
 31 32  2  0
 32 33  1  0
 33 34  2  0
 34  5  1  0
 28 10  1  0
 34 29  1  0
 27 19  1  0
M  END
>  <Compound_ID>  (439) 
CHEMBL3891445

>  <Molecule Name>  (439) 
nan

>  <Molecular Weight>  (439) 
472.43

>  <AlogP>  (439) 
3.07

>  <Smiles>  (439) 
CC(CO)n1cc(C(=O)c2cncc(NC(=O)Cn3ccc(C(F)(F)F)n3)c2)c2cnccc21

>  <Standard Type>  (439) 
IC50

>  <Standard Relation>  (439) 
'='

>  <Standard Units>  (439) 
nM

>  <Standard Value>  (439) 
44.7

>  <Assay ChEMBL ID>  (439) 
CHEMBL3887111

>  <Assay Description>  (439) 
HTRF Assay: Isolated TRK Enzyme assays use the HTRF KinEASE-TK kit (Cisbio Cat#62TK0PEJ) with recombinant His-tagged cytoplasmic domains of each TRK receptor sourced from Invitrogen (see table below). This activity-assay measures the phosphorylation of tyrosine residues within a substrate from the HTRF kit which has been validated by Cisbio for a variety of tyrosine kinases including the TRK receptors.Assay Details: Invitrogen Amino FAC FAC Assay ReactionTarget Cat# acids enzyme ATP TimeTRKA PV3144 aa 441-4 nM 40 uM 35 min (NTRK1) 796 TRKB PV3616 aa 526-1 nM 1.4 uM 40 min (NTRK2) 838 TRKC PV3617 aa 510- 10 nM 15 uM 30 min (NTRK3) 8250.5 mM stock solutions of test compounds are prepared and serially diluted in 100% DMSO. A standard curve using the compound of Example 135 disclosed in WO2005/116035 of 150 uM is also prepared on each test plate. High percentage effect (HPE) is defined by 150 uM.

>  <BAO Format ID>  (439) 
BAO_0000357

>  <BAO Label>  (439) 
single protein format

>  <Assay Organism>  (439) 
None

>  <Target ChEMBL ID>  (439) 
CHEMBL2815

>  <Target Name>  (439) 
Nerve growth factor receptor Trk-A

>  <Target Organism>  (439) 
Homo sapiens

>  <Target Type>  (439) 
SINGLE PROTEIN

>  <Document ChEMBL ID>  (439) 
CHEMBL3886170

>  <Source Description>  (439) 
BindingDB Database

>  <Document Journal>  (439) 
nan

>  <Document Year>  (439) 
2015.0

>  <Active>  (439) 
1.0

>  <bits>  (439) 
<rdkit.DataStructs.cDataStructs.ExplicitBitVect object at 0x00000159F78D1F50>

>  <Group>  (439) 
G2

$$$$

     RDKit          2D

 33 36  0  0  0  0  0  0  0  0999 V2000
   -2.9520   -4.6564    0.0000 C   0  0  0  0  0  0  0  0  0  0  0  0
   -2.6401   -3.1891    0.0000 C   0  0  0  0  0  0  0  0  0  0  0  0
   -3.7548   -2.1855    0.0000 C   0  0  0  0  0  0  0  0  0  0  0  0
   -1.2135   -2.7256    0.0000 N   0  0  0  0  0  0  0  0  0  0  0  0
   -0.0000   -3.6073    0.0000 C   0  0  0  0  0  0  0  0  0  0  0  0
    1.2135   -2.7256    0.0000 C   0  0  0  0  0  0  0  0  0  0  0  0
    2.6401   -3.1891    0.0000 C   0  0  0  0  0  0  0  0  0  0  0  0
    3.7548   -2.1855    0.0000 O   0  0  0  0  0  0  0  0  0  0  0  0
    2.9520   -4.6564    0.0000 C   0  0  0  0  0  0  0  0  0  0  0  0
    1.8373   -5.6601    0.0000 C   0  0  0  0  0  0  0  0  0  0  0  0
    2.1491   -7.1273    0.0000 C   0  0  0  0  0  0  0  0  0  0  0  0
    1.0344   -8.1310    0.0000 N   0  0  0  0  0  0  0  0  0  0  0  0
   -0.3922   -7.6675    0.0000 C   0  0  0  0  0  0  0  0  0  0  0  0
   -0.7040   -6.2002    0.0000 O   0  0  0  0  0  0  0  0  0  0  0  0
   -1.5069   -8.6712    0.0000 C   0  0  0  0  0  0  0  0  0  0  0  0
   -2.9335   -8.2076    0.0000 N   0  0  0  0  0  0  0  0  0  0  0  0
   -4.1470   -9.0893    0.0000 C   0  0  0  0  0  0  0  0  0  0  0  0
   -5.3605   -8.2076    0.0000 C   0  0  0  0  0  0  0  0  0  0  0  0
   -4.8970   -6.7810    0.0000 C   0  0  0  0  0  0  0  0  0  0  0  0
   -5.7787   -5.5675    0.0000 C   0  0  0  0  0  0  0  0  0  0  0  0
   -6.6604   -4.3540    0.0000 F   0  0  0  0  0  0  0  0  0  0  0  0
   -6.9922   -6.4492    0.0000 F   0  0  0  0  0  0  0  0  0  0  0  0
   -4.5652   -4.6858    0.0000 F   0  0  0  0  0  0  0  0  0  0  0  0
   -3.3970   -6.7810    0.0000 N   0  0  0  0  0  0  0  0  0  0  0  0
    3.5757   -7.5908    0.0000 C   0  0  0  0  0  0  0  0  0  0  0  0
    4.6904   -6.5871    0.0000 C   0  0  0  0  0  0  0  0  0  0  0  0
    4.3786   -5.1199    0.0000 N   0  0  0  0  0  0  0  0  0  0  0  0
    0.7500   -1.2990    0.0000 C   0  0  0  0  0  0  0  0  0  0  0  0
    1.5000    0.0000    0.0000 C   0  0  0  0  0  0  0  0  0  0  0  0
    0.7500    1.2990    0.0000 N   0  0  0  0  0  0  0  0  0  0  0  0
   -0.7500    1.2990    0.0000 C   0  0  0  0  0  0  0  0  0  0  0  0
   -1.5000    0.0000    0.0000 C   0  0  0  0  0  0  0  0  0  0  0  0
   -0.7500   -1.2990    0.0000 C   0  0  0  0  0  0  0  0  0  0  0  0
  1  2  1  0
  2  3  1  0
  2  4  1  0
  4  5  1  0
  5  6  2  0
  6  7  1  0
  7  8  2  0
  7  9  1  0
  9 10  2  0
 10 11  1  0
 11 12  1  0
 12 13  1  0
 13 14  2  0
 13 15  1  0
 15 16  1  0
 16 17  1  0
 17 18  2  0
 18 19  1  0
 19 20  1  0
 20 21  1  0
 20 22  1  0
 20 23  1  0
 19 24  2  0
 11 25  2  0
 25 26  1  0
 26 27  2  0
  6 28  1  0
 28 29  2  0
 29 30  1  0
 30 31  2  0
 31 32  1  0
 32 33  2  0
 33  4  1  0
 27  9  1  0
 33 28  1  0
 24 16  1  0
M  END
>  <Compound_ID>  (440) 
CHEMBL3968464

>  <Molecule Name>  (440) 
nan

>  <Molecular Weight>  (440) 
456.43

>  <AlogP>  (440) 
4.1

>  <Smiles>  (440) 
CC(C)n1cc(C(=O)c2cc(NC(=O)Cn3ccc(C(F)(F)F)n3)ccn2)c2cnccc21

>  <Standard Type>  (440) 
IC50

>  <Standard Relation>  (440) 
'='

>  <Standard Units>  (440) 
nM

>  <Standard Value>  (440) 
89.7

>  <Assay ChEMBL ID>  (440) 
CHEMBL3887111

>  <Assay Description>  (440) 
HTRF Assay: Isolated TRK Enzyme assays use the HTRF KinEASE-TK kit (Cisbio Cat#62TK0PEJ) with recombinant His-tagged cytoplasmic domains of each TRK receptor sourced from Invitrogen (see table below). This activity-assay measures the phosphorylation of tyrosine residues within a substrate from the HTRF kit which has been validated by Cisbio for a variety of tyrosine kinases including the TRK receptors.Assay Details: Invitrogen Amino FAC FAC Assay ReactionTarget Cat# acids enzyme ATP TimeTRKA PV3144 aa 441-4 nM 40 uM 35 min (NTRK1) 796 TRKB PV3616 aa 526-1 nM 1.4 uM 40 min (NTRK2) 838 TRKC PV3617 aa 510- 10 nM 15 uM 30 min (NTRK3) 8250.5 mM stock solutions of test compounds are prepared and serially diluted in 100% DMSO. A standard curve using the compound of Example 135 disclosed in WO2005/116035 of 150 uM is also prepared on each test plate. High percentage effect (HPE) is defined by 150 uM.

>  <BAO Format ID>  (440) 
BAO_0000357

>  <BAO Label>  (440) 
single protein format

>  <Assay Organism>  (440) 
None

>  <Target ChEMBL ID>  (440) 
CHEMBL2815

>  <Target Name>  (440) 
Nerve growth factor receptor Trk-A

>  <Target Organism>  (440) 
Homo sapiens

>  <Target Type>  (440) 
SINGLE PROTEIN

>  <Document ChEMBL ID>  (440) 
CHEMBL3886170

>  <Source Description>  (440) 
BindingDB Database

>  <Document Journal>  (440) 
nan

>  <Document Year>  (440) 
2015.0

>  <Active>  (440) 
1.0

>  <bits>  (440) 
<rdkit.DataStructs.cDataStructs.ExplicitBitVect object at 0x00000159F78D2260>

>  <Group>  (440) 
G2

$$$$

     RDKit          2D

 32 35  0  0  0  0  0  0  0  0999 V2000
   -2.9520   -4.6564    0.0000 C   0  0  0  0  0  0  0  0  0  0  0  0
   -2.6401   -3.1891    0.0000 C   0  0  0  0  0  0  0  0  0  0  0  0
   -3.7548   -2.1855    0.0000 C   0  0  0  0  0  0  0  0  0  0  0  0
   -1.2135   -2.7256    0.0000 N   0  0  0  0  0  0  0  0  0  0  0  0
   -0.0000   -3.6073    0.0000 C   0  0  0  0  0  0  0  0  0  0  0  0
    1.2135   -2.7256    0.0000 C   0  0  0  0  0  0  0  0  0  0  0  0
    2.6401   -3.1891    0.0000 C   0  0  0  0  0  0  0  0  0  0  0  0
    3.7548   -2.1855    0.0000 O   0  0  0  0  0  0  0  0  0  0  0  0
    2.9520   -4.6564    0.0000 C   0  0  0  0  0  0  0  0  0  0  0  0
    1.8373   -5.6601    0.0000 C   0  0  0  0  0  0  0  0  0  0  0  0
    2.1491   -7.1273    0.0000 C   0  0  0  0  0  0  0  0  0  0  0  0
    1.0344   -8.1310    0.0000 N   0  0  0  0  0  0  0  0  0  0  0  0
   -0.3922   -7.6675    0.0000 C   0  0  0  0  0  0  0  0  0  0  0  0
   -0.7040   -6.2002    0.0000 O   0  0  0  0  0  0  0  0  0  0  0  0
   -1.5069   -8.6712    0.0000 C   0  0  0  0  0  0  0  0  0  0  0  0
   -2.9335   -8.2076    0.0000 C   0  0  0  0  0  0  0  0  0  0  0  0
   -3.2453   -6.7404    0.0000 C   0  0  0  0  0  0  0  0  0  0  0  0
   -4.6719   -6.2769    0.0000 C   0  0  0  0  0  0  0  0  0  0  0  0
   -5.7866   -7.2806    0.0000 C   0  0  0  0  0  0  0  0  0  0  0  0
   -7.2132   -6.8171    0.0000 Cl  0  0  0  0  0  0  0  0  0  0  0  0
   -5.4748   -8.7478    0.0000 C   0  0  0  0  0  0  0  0  0  0  0  0
   -4.0482   -9.2113    0.0000 C   0  0  0  0  0  0  0  0  0  0  0  0
    3.5757   -7.5908    0.0000 C   0  0  0  0  0  0  0  0  0  0  0  0
    4.6904   -6.5871    0.0000 C   0  0  0  0  0  0  0  0  0  0  0  0
    4.3786   -5.1199    0.0000 N   0  0  0  0  0  0  0  0  0  0  0  0
    0.7500   -1.2990    0.0000 C   0  0  0  0  0  0  0  0  0  0  0  0
    1.5000    0.0000    0.0000 C   0  0  0  0  0  0  0  0  0  0  0  0
    0.7500    1.2990    0.0000 N   0  0  0  0  0  0  0  0  0  0  0  0
   -0.7500    1.2990    0.0000 C   0  0  0  0  0  0  0  0  0  0  0  0
   -1.5000    0.0000    0.0000 C   0  0  0  0  0  0  0  0  0  0  0  0
   -3.0000    0.0000    0.0000 F   0  0  0  0  0  0  0  0  0  0  0  0
   -0.7500   -1.2990    0.0000 C   0  0  0  0  0  0  0  0  0  0  0  0
  1  2  1  0
  2  3  1  0
  2  4  1  0
  4  5  1  0
  5  6  2  0
  6  7  1  0
  7  8  2  0
  7  9  1  0
  9 10  2  0
 10 11  1  0
 11 12  1  0
 12 13  1  0
 13 14  2  0
 13 15  1  0
 15 16  1  0
 16 17  2  0
 17 18  1  0
 18 19  2  0
 19 20  1  0
 19 21  1  0
 21 22  2  0
 11 23  2  0
 23 24  1  0
 24 25  2  0
  6 26  1  0
 26 27  2  0
 27 28  1  0
 28 29  2  0
 29 30  1  0
 30 31  1  0
 30 32  2  0
 32  4  1  0
 25  9  1  0
 32 26  1  0
 22 16  1  0
M  END
>  <Compound_ID>  (441) 
CHEMBL3917194

>  <Molecule Name>  (441) 
nan

>  <Molecular Weight>  (441) 
450.9

>  <AlogP>  (441) 
5.22

>  <Smiles>  (441) 
CC(C)n1cc(C(=O)c2cc(NC(=O)Cc3ccc(Cl)cc3)ccn2)c2cncc(F)c21

>  <Standard Type>  (441) 
IC50

>  <Standard Relation>  (441) 
'='

>  <Standard Units>  (441) 
nM

>  <Standard Value>  (441) 
23.3

>  <Assay ChEMBL ID>  (441) 
CHEMBL3887111

>  <Assay Description>  (441) 
HTRF Assay: Isolated TRK Enzyme assays use the HTRF KinEASE-TK kit (Cisbio Cat#62TK0PEJ) with recombinant His-tagged cytoplasmic domains of each TRK receptor sourced from Invitrogen (see table below). This activity-assay measures the phosphorylation of tyrosine residues within a substrate from the HTRF kit which has been validated by Cisbio for a variety of tyrosine kinases including the TRK receptors.Assay Details: Invitrogen Amino FAC FAC Assay ReactionTarget Cat# acids enzyme ATP TimeTRKA PV3144 aa 441-4 nM 40 uM 35 min (NTRK1) 796 TRKB PV3616 aa 526-1 nM 1.4 uM 40 min (NTRK2) 838 TRKC PV3617 aa 510- 10 nM 15 uM 30 min (NTRK3) 8250.5 mM stock solutions of test compounds are prepared and serially diluted in 100% DMSO. A standard curve using the compound of Example 135 disclosed in WO2005/116035 of 150 uM is also prepared on each test plate. High percentage effect (HPE) is defined by 150 uM.

>  <BAO Format ID>  (441) 
BAO_0000357

>  <BAO Label>  (441) 
single protein format

>  <Assay Organism>  (441) 
None

>  <Target ChEMBL ID>  (441) 
CHEMBL2815

>  <Target Name>  (441) 
Nerve growth factor receptor Trk-A

>  <Target Organism>  (441) 
Homo sapiens

>  <Target Type>  (441) 
SINGLE PROTEIN

>  <Document ChEMBL ID>  (441) 
CHEMBL3886170

>  <Source Description>  (441) 
BindingDB Database

>  <Document Journal>  (441) 
nan

>  <Document Year>  (441) 
2015.0

>  <Active>  (441) 
1.0

>  <bits>  (441) 
<rdkit.DataStructs.cDataStructs.ExplicitBitVect object at 0x00000159F78D3D80>

>  <Group>  (441) 
G2

$$$$

     RDKit          2D

 41 46  0  0  0  0  0  0  0  0999 V2000
    5.7997    1.0344    0.0000 C   0  0  0  0  0  0  0  0  0  0  0  0
    4.7960    2.1491    0.0000 C   0  0  0  0  0  0  0  0  0  0  0  0
    5.2595    3.5757    0.0000 C   0  0  0  0  0  0  0  0  0  0  0  0
    6.7267    3.8876    0.0000 C   0  0  0  0  0  0  0  0  0  0  0  0
    7.7304    2.7729    0.0000 C   0  0  0  0  0  0  0  0  0  0  0  0
    7.2669    1.3463    0.0000 F   0  0  0  0  0  0  0  0  0  0  0  0
    9.1976    3.0847    0.0000 C   0  0  0  0  0  0  0  0  0  0  0  0
   10.2013    1.9700    0.0000 F   0  0  0  0  0  0  0  0  0  0  0  0
    9.6612    4.5113    0.0000 C   0  0  0  0  0  0  0  0  0  0  0  0
    8.6575    5.6260    0.0000 C   0  0  0  0  0  0  0  0  0  0  0  0
    9.1210    7.0526    0.0000 F   0  0  0  0  0  0  0  0  0  0  0  0
    7.1902    5.3142    0.0000 C   0  0  0  0  0  0  0  0  0  0  0  0
    6.1865    6.4289    0.0000 F   0  0  0  0  0  0  0  0  0  0  0  0
    3.3287    1.8373    0.0000 N   0  0  0  0  0  0  0  0  0  0  0  0
    2.3250    2.9520    0.0000 C   0  0  0  0  0  0  0  0  0  0  0  0
    2.7886    4.3786    0.0000 C   0  0  0  0  0  0  0  0  0  0  0  0
    1.7849    5.4933    0.0000 C   0  0  0  0  0  0  0  0  0  0  0  0
    0.3177    5.1814    0.0000 N   0  0  0  0  0  0  0  0  0  0  0  0
   -0.1459    3.7548    0.0000 C   0  0  0  0  0  0  0  0  0  0  0  0
   -1.6131    3.4430    0.0000 O   0  0  0  0  0  0  0  0  0  0  0  0
    0.8578    2.6401    0.0000 C   0  0  0  0  0  0  0  0  0  0  0  0
    0.3943    1.2135    0.0000 C   0  0  0  0  0  0  0  0  0  0  0  0
    1.2760    0.0000    0.0000 N   0  0  0  0  0  0  0  0  0  0  0  0
    0.3943   -1.2135    0.0000 C   0  0  0  0  0  0  0  0  0  0  0  0
    0.7062   -2.6807    0.0000 C   0  0  0  0  0  0  0  0  0  0  0  0
   -0.4086   -3.6844    0.0000 C   0  0  0  0  0  0  0  0  0  0  0  0
   -1.8351   -3.2209    0.0000 C   0  0  0  0  0  0  0  0  0  0  0  0
   -2.1470   -1.7537    0.0000 C   0  0  0  0  0  0  0  0  0  0  0  0
   -1.0323   -0.7500    0.0000 C   0  0  0  0  0  0  0  0  0  0  0  0
   -1.0323    0.7500    0.0000 N   0  0  0  0  0  0  0  0  0  0  0  0
   -2.7168   -4.4344    0.0000 C   0  0  0  0  0  0  0  0  0  0  0  0
   -4.2168   -4.4344    0.0000 O   0  0  0  0  0  0  0  0  0  0  0  0
   -1.8351   -5.6480    0.0000 N   0  0  0  0  0  0  0  0  0  0  0  0
   -2.2987   -7.0746    0.0000 C   0  0  0  0  0  0  0  0  0  0  0  0
   -3.7659   -7.3864    0.0000 C   0  0  0  0  0  0  0  0  0  0  0  0
   -4.2294   -8.8130    0.0000 C   0  0  0  0  0  0  0  0  0  0  0  0
   -3.2257   -9.9277    0.0000 C   0  0  0  0  0  0  0  0  0  0  0  0
   -1.7585   -9.6159    0.0000 N   0  0  0  0  0  0  0  0  0  0  0  0
   -1.2950   -8.1893    0.0000 C   0  0  0  0  0  0  0  0  0  0  0  0
   -0.4086   -5.1844    0.0000 C   0  0  0  0  0  0  0  0  0  0  0  0
    0.8050   -6.0661    0.0000 O   0  0  0  0  0  0  0  0  0  0  0  0
  2  1  1  6
  2  3  1  0
  3  4  1  0
  4  5  2  0
  5  6  1  0
  5  7  1  0
  7  8  1  0
  7  9  2  0
  9 10  1  0
 10 11  1  0
 10 12  2  0
 12 13  1  0
  2 14  1  0
 14 15  1  0
 15 16  1  0
 16 17  2  0
 17 18  1  0
 18 19  1  0
 19 20  2  0
 19 21  1  0
 21 22  1  0
 22 23  2  0
 23 24  1  0
 24 25  2  0
 25 26  1  0
 26 27  2  0
 27 28  1  0
 28 29  2  0
 29 30  1  0
 27 31  1  0
 31 32  2  0
 31 33  1  0
 33 34  1  0
 34 35  2  0
 35 36  1  0
 36 37  2  0
 37 38  1  0
 38 39  2  0
 33 40  1  0
 40 41  2  0
 12  4  1  0
 21 15  2  0
 30 22  1  0
 39 34  1  0
 29 24  1  0
 40 26  1  0
M  END
>  <Compound_ID>  (442) 
CHEMBL3671313

>  <Molecule Name>  (442) 
nan

>  <Molecular Weight>  (442) 
562.48

>  <AlogP>  (442) 
4.71

>  <Smiles>  (442) 
C[C@@H](Cc1c(F)c(F)cc(F)c1F)Nc1cc[nH]c(=O)c1-c1nc2cc3c(cc2[nH]1)C(=O)N(c1cccnc1)C3=O

>  <Standard Type>  (442) 
IC50

>  <Standard Relation>  (442) 
'='

>  <Standard Units>  (442) 
nM

>  <Standard Value>  (442) 
20.41

>  <Assay ChEMBL ID>  (442) 
CHEMBL3887072

>  <Assay Description>  (442) 
In Vitro Kinase Activity Assay: Compounds to be tested were dissolved in 100% DMSO in a range of concentrations from 10-8 to 10-3 M including negative control (DMSO), then diluted with Kinase Buffer (50 mM HEPES, pH 7.5, 1 mM EGTA, 10 mM MgCl2, 0.01% Tween-20, and 2 mM DTT, added fresh) to 4x the final concentration. The final curve included 11 concentrations (10-11 to 10-5 M) plus negative control DMSO tested in triplicate.Kinase and ATP concentrations necessary for optimal activity were determined in separate experiments. (Table 2). Briefly, increasing concentrations of kinase were incubated in a fixed concentration of ATP (200 uM) in Kinase Buffer to determine maximal activity at various time points (30-120 min). The concentration of kinase that resulted in maximal activity with the shortest incubation time was then incubated in Kinase Buffer with increasing concentrations of ATP.

>  <BAO Format ID>  (442) 
BAO_0000357

>  <BAO Label>  (442) 
single protein format

>  <Assay Organism>  (442) 
None

>  <Target ChEMBL ID>  (442) 
CHEMBL2815

>  <Target Name>  (442) 
Nerve growth factor receptor Trk-A

>  <Target Organism>  (442) 
Homo sapiens

>  <Target Type>  (442) 
SINGLE PROTEIN

>  <Document ChEMBL ID>  (442) 
CHEMBL3639188

>  <Source Description>  (442) 
BindingDB Database

>  <Document Journal>  (442) 
nan

>  <Document Year>  (442) 
2014.0

>  <Active>  (442) 
1.0

>  <bits>  (442) 
<rdkit.DataStructs.cDataStructs.ExplicitBitVect object at 0x00000159F78D2C70>

>  <Group>  (442) 
G2

$$$$

     RDKit          2D

 31 35  0  0  0  0  0  0  0  0999 V2000
   -8.9374   -5.2352    0.0000 C   0  0  0  0  0  0  0  0  0  0  0  0
   -7.8226   -6.2389    0.0000 O   0  0  0  0  0  0  0  0  0  0  0  0
   -6.3961   -5.7754    0.0000 C   0  0  0  0  0  0  0  0  0  0  0  0
   -5.7151   -4.4389    0.0000 C   0  0  0  0  0  0  0  0  0  0  0  0
   -4.3786   -5.1199    0.0000 N   0  0  0  0  0  0  0  0  0  0  0  0
   -2.9520   -4.6564    0.0000 C   0  0  0  0  0  0  0  0  0  0  0  0
   -1.8373   -5.6601    0.0000 O   0  0  0  0  0  0  0  0  0  0  0  0
   -2.6401   -3.1891    0.0000 N   0  0  0  0  0  0  0  0  0  0  0  0
   -1.2135   -2.7256    0.0000 C   0  0  0  0  0  0  0  0  0  0  0  0
   -0.0000   -3.6073    0.0000 C   0  0  0  0  0  0  0  0  0  0  0  0
    1.2135   -2.7256    0.0000 N   0  0  0  0  0  0  0  0  0  0  0  0
    0.7500   -1.2990    0.0000 N   0  0  0  0  0  0  0  0  0  0  0  0
    1.5000    0.0000    0.0000 C   0  0  0  0  0  0  0  0  0  0  0  0
    0.7500    1.2990    0.0000 C   0  0  0  0  0  0  0  0  0  0  0  0
   -0.7500    1.2990    0.0000 C   0  0  0  0  0  0  0  0  0  0  0  0
   -1.5000    2.5981    0.0000 N   0  0  0  0  0  0  0  0  0  0  0  0
   -2.9918    2.7549    0.0000 C   0  0  0  0  0  0  0  0  0  0  0  0
   -3.3037    4.2221    0.0000 C   0  0  0  0  0  0  0  0  0  0  0  0
   -2.0046    4.9721    0.0000 C   0  0  0  0  0  0  0  0  0  0  0  0
   -0.8899    3.9684    0.0000 C   0  0  0  0  0  0  0  0  0  0  0  0
    0.5773    4.2803    0.0000 C   0  0  0  0  0  0  0  0  0  0  0  0
    1.5810    3.1655    0.0000 C   0  0  0  0  0  0  0  0  0  0  0  0
    3.0482    3.4774    0.0000 C   0  0  0  0  0  0  0  0  0  0  0  0
    4.0519    2.3627    0.0000 F   0  0  0  0  0  0  0  0  0  0  0  0
    3.5118    4.9040    0.0000 C   0  0  0  0  0  0  0  0  0  0  0  0
    2.5081    6.0187    0.0000 C   0  0  0  0  0  0  0  0  0  0  0  0
    1.0409    5.7068    0.0000 C   0  0  0  0  0  0  0  0  0  0  0  0
    0.0372    6.8216    0.0000 F   0  0  0  0  0  0  0  0  0  0  0  0
   -1.5000    0.0000    0.0000 N   0  0  0  0  0  0  0  0  0  0  0  0
   -0.7500   -1.2990    0.0000 C   0  0  0  0  0  0  0  0  0  0  0  0
   -5.0595   -6.4564    0.0000 C   0  0  0  0  0  0  0  0  0  0  0  0
  1  2  1  0
  2  3  1  0
  3  4  1  0
  4  5  1  0
  5  6  1  0
  6  7  2  0
  6  8  1  0
  8  9  1  0
  9 10  1  0
 10 11  2  0
 11 12  1  0
 12 13  1  0
 13 14  2  0
 14 15  1  0
 15 16  1  0
 16 17  1  0
 17 18  1  0
 18 19  1  0
 19 20  1  0
 20 21  1  6
 21 22  2  0
 22 23  1  0
 23 24  1  0
 23 25  2  0
 25 26  1  0
 26 27  2  0
 27 28  1  0
 15 29  2  0
 29 30  1  0
  5 31  1  0
 31  3  1  0
 30  9  2  0
 30 12  1  0
 20 16  1  0
 27 21  1  0
M  END
>  <Compound_ID>  (443) 
CHEMBL4109648

>  <Molecule Name>  (443) 
nan

>  <Molecular Weight>  (443) 
428.44

>  <AlogP>  (443) 
3.21

>  <Smiles>  (443) 
COC1CN(C(=O)Nc2cnn3ccc(N4CCC[C@@H]4c4cc(F)ccc4F)nc23)C1

>  <Standard Type>  (443) 
IC50

>  <Standard Relation>  (443) 
'='

>  <Standard Units>  (443) 
nM

>  <Standard Value>  (443) 
27.5

>  <Assay ChEMBL ID>  (443) 
CHEMBL3887076

>  <Assay Description>  (443) 
ELISA Assay: An enzyme-linked immunosorbant assay (ELISA) was used to assess TrkA kinase activity in the presence of inhibitors. Immulon 4HBX 384-well microtiter plates (Thermo part #8755) were coated with a 0.025 mg/mL solution of poly (Glu, Ala, Tyr; 6:3:1; Sigma P3899). Various concentrations of test compound, 2.5 nM TrkA (Invitrogen Corp., histidine-tagged recombinant human TrkA, cytoplasmic domain), and 500 uM ATP were incubated for 25 minutes at ambient temperature in the coated plates while shaking. The assay buffer consisted of 25 mM MOPS pH 7.5, 0.005% (v/v) Triton X-100 and 5 mM MgCl2. The reaction mixture was removed from the plate by washing with PBS containing 0.1% (v/v) Tween 20. The phosphorylated reaction product was detected using 0.2 ug/mL of a phosphotyrosine specific monoclonal antibody (clone PY20) conjugated to horseradish peroxidase in conjunction with the TMB Peroxidase Substrate System (KPL).

>  <BAO Format ID>  (443) 
BAO_0000357

>  <BAO Label>  (443) 
single protein format

>  <Assay Organism>  (443) 
None

>  <Target ChEMBL ID>  (443) 
CHEMBL2815

>  <Target Name>  (443) 
Nerve growth factor receptor Trk-A

>  <Target Organism>  (443) 
Homo sapiens

>  <Target Type>  (443) 
SINGLE PROTEIN

>  <Document ChEMBL ID>  (443) 
CHEMBL3886151

>  <Source Description>  (443) 
BindingDB Database

>  <Document Journal>  (443) 
nan

>  <Document Year>  (443) 
2014.0

>  <Active>  (443) 
1.0

>  <bits>  (443) 
<rdkit.DataStructs.cDataStructs.ExplicitBitVect object at 0x00000159F78D3AE0>

>  <Group>  (443) 
G2

$$$$

     RDKit          2D

 28 32  0  0  0  0  0  0  0  0999 V2000
   -3.7548   -2.1855    0.0000 O   0  0  0  0  0  0  0  0  0  0  0  0
   -2.6401   -3.1891    0.0000 C   0  0  0  0  0  0  0  0  0  0  0  0
   -2.9520   -4.6564    0.0000 N   0  0  0  0  0  0  0  0  0  0  0  0
   -4.3786   -5.1199    0.0000 C   0  0  0  0  0  0  0  0  0  0  0  0
   -5.7151   -4.4389    0.0000 C   0  0  0  0  0  0  0  0  0  0  0  0
   -6.3961   -5.7754    0.0000 C   0  0  0  0  0  0  0  0  0  0  0  0
   -5.0595   -6.4564    0.0000 C   0  0  0  0  0  0  0  0  0  0  0  0
   -1.2135   -2.7256    0.0000 C   0  0  0  0  0  0  0  0  0  0  0  0
   -0.0000   -3.6073    0.0000 C   0  0  0  0  0  0  0  0  0  0  0  0
    1.2135   -2.7256    0.0000 N   0  0  0  0  0  0  0  0  0  0  0  0
    0.7500   -1.2990    0.0000 N   0  0  0  0  0  0  0  0  0  0  0  0
    1.5000    0.0000    0.0000 C   0  0  0  0  0  0  0  0  0  0  0  0
    0.7500    1.2990    0.0000 C   0  0  0  0  0  0  0  0  0  0  0  0
   -0.7500    1.2990    0.0000 C   0  0  0  0  0  0  0  0  0  0  0  0
   -1.5000    2.5981    0.0000 N   0  0  0  0  0  0  0  0  0  0  0  0
   -2.9918    2.7549    0.0000 C   0  0  0  0  0  0  0  0  0  0  0  0
   -3.3037    4.2221    0.0000 C   0  0  0  0  0  0  0  0  0  0  0  0
   -2.0046    4.9721    0.0000 C   0  0  0  0  0  0  0  0  0  0  0  0
   -0.8899    3.9684    0.0000 C   0  0  0  0  0  0  0  0  0  0  0  0
    0.5773    4.2803    0.0000 C   0  0  0  0  0  0  0  0  0  0  0  0
    1.5810    3.1655    0.0000 C   0  0  0  0  0  0  0  0  0  0  0  0
    3.0482    3.4774    0.0000 N   0  0  0  0  0  0  0  0  0  0  0  0
    3.5118    4.9040    0.0000 C   0  0  0  0  0  0  0  0  0  0  0  0
    2.5081    6.0187    0.0000 C   0  0  0  0  0  0  0  0  0  0  0  0
    2.9716    7.4453    0.0000 F   0  0  0  0  0  0  0  0  0  0  0  0
    1.0409    5.7068    0.0000 C   0  0  0  0  0  0  0  0  0  0  0  0
   -1.5000    0.0000    0.0000 N   0  0  0  0  0  0  0  0  0  0  0  0
   -0.7500   -1.2990    0.0000 C   0  0  0  0  0  0  0  0  0  0  0  0
  1  2  2  0
  2  3  1  0
  3  4  1  0
  4  5  1  0
  5  6  1  0
  6  7  1  0
  2  8  1  0
  8  9  1  0
  9 10  2  0
 10 11  1  0
 11 12  1  0
 12 13  2  0
 13 14  1  0
 14 15  1  0
 15 16  1  0
 16 17  1  0
 17 18  1  0
 18 19  1  0
 19 20  1  6
 20 21  2  0
 21 22  1  0
 22 23  2  0
 23 24  1  0
 24 25  1  0
 24 26  2  0
 14 27  2  0
 27 28  1  0
  7  4  1  0
 28  8  2  0
 28 11  1  0
 19 15  1  0
 26 20  1  0
M  END
>  <Compound_ID>  (444) 
CHEMBL3675975

>  <Molecule Name>  (444) 
nan

>  <Molecular Weight>  (444) 
380.43

>  <AlogP>  (444) 
2.89

>  <Smiles>  (444) 
O=C(NC1CCC1)c1cnn2ccc(N3CCC[C@@H]3c3cncc(F)c3)nc12

>  <Standard Type>  (444) 
IC50

>  <Standard Relation>  (444) 
'='

>  <Standard Units>  (444) 
nM

>  <Standard Value>  (444) 
11.7

>  <Assay ChEMBL ID>  (444) 
CHEMBL3887070

>  <Assay Description>  (444) 
ELISA Assay: An enzyme-linked immunosorbant assay (ELISA) was used to assess TrkA kinase activity in the presence of inhibitors. Immulon 4HBX 384-well microtiter plates (Thermo part #8755) were coated with a 0.025 mg/mL solution of poly (Glu, Ala, Tyr; 6:3:1; Sigma P3899). Various concentrations of test compound, 2.5 nM TrkA (Invitrogen Corp., histidine-tagged recombinant human TrkA, cytoplasmic domain), and 500 uM ATP were incubated for 25 minutes at ambient temperature in the coated plates while shaking The assay buffer consisted of 25 mM MOPS pH 7.5, 0.005% (v/v) Triton X-100 and 5 mM MgCl2. The reaction mixture was removed from the plate by washing with PBS containing 0.1% (v/v) Tween 20. The phosphorylated reaction product was detected using 0.2 ug/mL of a phosphotyrosine specific monoclonal antibody (clone PY20) conjugated to horseradish peroxidase in conjunction with the TMB Peroxidase Substrate System (KPL).

>  <BAO Format ID>  (444) 
BAO_0000357

>  <BAO Label>  (444) 
single protein format

>  <Assay Organism>  (444) 
None

>  <Target ChEMBL ID>  (444) 
CHEMBL2815

>  <Target Name>  (444) 
Nerve growth factor receptor Trk-A

>  <Target Organism>  (444) 
Homo sapiens

>  <Target Type>  (444) 
SINGLE PROTEIN

>  <Document ChEMBL ID>  (444) 
CHEMBL3638907

>  <Source Description>  (444) 
BindingDB Database

>  <Document Journal>  (444) 
nan

>  <Document Year>  (444) 
2014.0

>  <Active>  (444) 
1.0

>  <bits>  (444) 
<rdkit.DataStructs.cDataStructs.ExplicitBitVect object at 0x00000159F78D15B0>

>  <Group>  (444) 
G2

$$$$

     RDKit          2D

 29 33  0  0  0  0  0  0  0  0999 V2000
   -3.7548   -2.1855    0.0000 O   0  0  0  0  0  0  0  0  0  0  0  0
   -2.6401   -3.1891    0.0000 C   0  0  0  0  0  0  0  0  0  0  0  0
   -2.9520   -4.6564    0.0000 N   0  0  0  0  0  0  0  0  0  0  0  0
   -4.3786   -5.1199    0.0000 C   0  0  0  0  0  0  0  0  0  0  0  0
   -5.0828   -3.7955    0.0000 C   0  0  0  0  0  0  0  0  0  0  0  0
   -6.5819   -3.7431    0.0000 O   0  0  0  0  0  0  0  0  0  0  0  0
   -5.5606   -6.0434    0.0000 C   0  0  0  0  0  0  0  0  0  0  0  0
   -4.1698   -6.6053    0.0000 C   0  0  0  0  0  0  0  0  0  0  0  0
   -1.2135   -2.7256    0.0000 C   0  0  0  0  0  0  0  0  0  0  0  0
   -0.0000   -3.6073    0.0000 C   0  0  0  0  0  0  0  0  0  0  0  0
    1.2135   -2.7256    0.0000 N   0  0  0  0  0  0  0  0  0  0  0  0
    0.7500   -1.2990    0.0000 N   0  0  0  0  0  0  0  0  0  0  0  0
    1.5000    0.0000    0.0000 C   0  0  0  0  0  0  0  0  0  0  0  0
    0.7500    1.2990    0.0000 C   0  0  0  0  0  0  0  0  0  0  0  0
   -0.7500    1.2990    0.0000 C   0  0  0  0  0  0  0  0  0  0  0  0
   -1.5000    2.5981    0.0000 N   0  0  0  0  0  0  0  0  0  0  0  0
   -2.9918    2.7549    0.0000 C   0  0  0  0  0  0  0  0  0  0  0  0
   -3.3037    4.2221    0.0000 C   0  0  0  0  0  0  0  0  0  0  0  0
   -2.0046    4.9721    0.0000 C   0  0  0  0  0  0  0  0  0  0  0  0
   -0.8899    3.9684    0.0000 C   0  0  0  0  0  0  0  0  0  0  0  0
    0.5773    4.2803    0.0000 C   0  0  0  0  0  0  0  0  0  0  0  0
    1.5810    3.1655    0.0000 C   0  0  0  0  0  0  0  0  0  0  0  0
    3.0482    3.4774    0.0000 N   0  0  0  0  0  0  0  0  0  0  0  0
    3.5118    4.9040    0.0000 C   0  0  0  0  0  0  0  0  0  0  0  0
    2.5081    6.0187    0.0000 C   0  0  0  0  0  0  0  0  0  0  0  0
    2.9716    7.4453    0.0000 F   0  0  0  0  0  0  0  0  0  0  0  0
    1.0409    5.7068    0.0000 C   0  0  0  0  0  0  0  0  0  0  0  0
   -1.5000    0.0000    0.0000 N   0  0  0  0  0  0  0  0  0  0  0  0
   -0.7500   -1.2990    0.0000 C   0  0  0  0  0  0  0  0  0  0  0  0
  1  2  2  0
  2  3  1  0
  3  4  1  0
  4  5  1  0
  5  6  1  0
  4  7  1  0
  7  8  1  0
  2  9  1  0
  9 10  1  0
 10 11  2  0
 11 12  1  0
 12 13  1  0
 13 14  2  0
 14 15  1  0
 15 16  1  0
 16 17  1  0
 17 18  1  0
 18 19  1  0
 19 20  1  0
 20 21  1  0
 21 22  2  0
 22 23  1  0
 23 24  2  0
 24 25  1  0
 25 26  1  0
 25 27  2  0
 15 28  2  0
 28 29  1  0
  8  4  1  0
 29  9  2  0
 29 12  1  0
 20 16  1  0
 27 21  1  0
M  END
>  <Compound_ID>  (445) 
CHEMBL3675981

>  <Molecule Name>  (445) 
nan

>  <Molecular Weight>  (445) 
396.43

>  <AlogP>  (445) 
1.86

>  <Smiles>  (445) 
O=C(NC1(CO)CC1)c1cnn2ccc(N3CCCC3c3cncc(F)c3)nc12

>  <Standard Type>  (445) 
IC50

>  <Standard Relation>  (445) 
'='

>  <Standard Units>  (445) 
nM

>  <Standard Value>  (445) 
16.4

>  <Assay ChEMBL ID>  (445) 
CHEMBL3887070

>  <Assay Description>  (445) 
ELISA Assay: An enzyme-linked immunosorbant assay (ELISA) was used to assess TrkA kinase activity in the presence of inhibitors. Immulon 4HBX 384-well microtiter plates (Thermo part #8755) were coated with a 0.025 mg/mL solution of poly (Glu, Ala, Tyr; 6:3:1; Sigma P3899). Various concentrations of test compound, 2.5 nM TrkA (Invitrogen Corp., histidine-tagged recombinant human TrkA, cytoplasmic domain), and 500 uM ATP were incubated for 25 minutes at ambient temperature in the coated plates while shaking The assay buffer consisted of 25 mM MOPS pH 7.5, 0.005% (v/v) Triton X-100 and 5 mM MgCl2. The reaction mixture was removed from the plate by washing with PBS containing 0.1% (v/v) Tween 20. The phosphorylated reaction product was detected using 0.2 ug/mL of a phosphotyrosine specific monoclonal antibody (clone PY20) conjugated to horseradish peroxidase in conjunction with the TMB Peroxidase Substrate System (KPL).

>  <BAO Format ID>  (445) 
BAO_0000357

>  <BAO Label>  (445) 
single protein format

>  <Assay Organism>  (445) 
None

>  <Target ChEMBL ID>  (445) 
CHEMBL2815

>  <Target Name>  (445) 
Nerve growth factor receptor Trk-A

>  <Target Organism>  (445) 
Homo sapiens

>  <Target Type>  (445) 
SINGLE PROTEIN

>  <Document ChEMBL ID>  (445) 
CHEMBL3638907

>  <Source Description>  (445) 
BindingDB Database

>  <Document Journal>  (445) 
nan

>  <Document Year>  (445) 
2014.0

>  <Active>  (445) 
1.0

>  <bits>  (445) 
<rdkit.DataStructs.cDataStructs.ExplicitBitVect object at 0x00000159F78D2F10>

>  <Group>  (445) 
G2

$$$$

     RDKit          2D

 30 33  0  0  0  0  0  0  0  0999 V2000
    7.3934   -3.6905    0.0000 C   0  0  0  0  0  0  0  0  0  0  0  0
    5.9262   -3.3786    0.0000 O   0  0  0  0  0  0  0  0  0  0  0  0
    5.4627   -1.9520    0.0000 C   0  0  0  0  0  0  0  0  0  0  0  0
    6.4664   -0.8373    0.0000 N   0  0  0  0  0  0  0  0  0  0  0  0
    6.0029    0.5893    0.0000 C   0  0  0  0  0  0  0  0  0  0  0  0
    4.5356    0.9012    0.0000 C   0  0  0  0  0  0  0  0  0  0  0  0
    4.0721    2.3277    0.0000 F   0  0  0  0  0  0  0  0  0  0  0  0
    3.5320   -0.2136    0.0000 C   0  0  0  0  0  0  0  0  0  0  0  0
    3.9955   -1.6402    0.0000 C   0  0  0  0  0  0  0  0  0  0  0  0
    2.9918   -2.7549    0.0000 C   0  0  0  0  0  0  0  0  0  0  0  0
    3.3037   -4.2221    0.0000 C   0  0  0  0  0  0  0  0  0  0  0  0
    2.0046   -4.9721    0.0000 C   0  0  0  0  0  0  0  0  0  0  0  0
    0.8899   -3.9684    0.0000 C   0  0  0  0  0  0  0  0  0  0  0  0
    1.5000   -2.5981    0.0000 N   0  0  0  0  0  0  0  0  0  0  0  0
    0.7500   -1.2990    0.0000 C   0  0  0  0  0  0  0  0  0  0  0  0
    1.5000    0.0000    0.0000 C   0  0  0  0  0  0  0  0  0  0  0  0
    0.7500    1.2990    0.0000 C   0  0  0  0  0  0  0  0  0  0  0  0
   -0.7500    1.2990    0.0000 N   0  0  0  0  0  0  0  0  0  0  0  0
   -1.7537    2.4138    0.0000 N   0  0  0  0  0  0  0  0  0  0  0  0
   -3.1240    1.8037    0.0000 C   0  0  0  0  0  0  0  0  0  0  0  0
   -2.9672    0.3119    0.0000 C   0  0  0  0  0  0  0  0  0  0  0  0
   -4.0819   -0.6918    0.0000 C   0  0  0  0  0  0  0  0  0  0  0  0
   -3.7701   -2.1590    0.0000 O   0  0  0  0  0  0  0  0  0  0  0  0
   -5.5085   -0.2283    0.0000 N   0  0  0  0  0  0  0  0  0  0  0  0
   -6.6232   -1.2320    0.0000 C   0  0  0  0  0  0  0  0  0  0  0  0
   -8.0498   -0.7685    0.0000 C   0  0  0  0  0  0  0  0  0  0  0  0
   -9.1645   -1.7722    0.0000 C   0  0  0  0  0  0  0  0  0  0  0  0
  -10.5911   -1.3086    0.0000 O   0  0  0  0  0  0  0  0  0  0  0  0
   -1.5000    0.0000    0.0000 C   0  0  0  0  0  0  0  0  0  0  0  0
   -0.7500   -1.2990    0.0000 N   0  0  0  0  0  0  0  0  0  0  0  0
  1  2  1  0
  2  3  1  0
  3  4  2  0
  4  5  1  0
  5  6  2  0
  6  7  1  0
  6  8  1  0
  8  9  2  0
 10  9  1  1
 10 11  1  0
 11 12  1  0
 12 13  1  0
 13 14  1  0
 14 15  1  0
 15 16  1  0
 16 17  2  0
 17 18  1  0
 18 19  1  0
 19 20  2  0
 20 21  1  0
 21 22  1  0
 22 23  2  0
 22 24  1  0
 24 25  1  0
 25 26  1  0
 26 27  1  0
 27 28  1  0
 21 29  2  0
 29 30  1  0
  9  3  1  0
 14 10  1  0
 30 15  2  0
 29 18  1  0
M  END
>  <Compound_ID>  (446) 
CHEMBL3676019

>  <Molecule Name>  (446) 
nan

>  <Molecular Weight>  (446) 
414.44

>  <AlogP>  (446) 
1.73

>  <Smiles>  (446) 
COc1ncc(F)cc1[C@H]1CCCN1c1ccn2ncc(C(=O)NCCCO)c2n1

>  <Standard Type>  (446) 
IC50

>  <Standard Relation>  (446) 
'='

>  <Standard Units>  (446) 
nM

>  <Standard Value>  (446) 
1.1

>  <Assay ChEMBL ID>  (446) 
CHEMBL3887070

>  <Assay Description>  (446) 
ELISA Assay: An enzyme-linked immunosorbant assay (ELISA) was used to assess TrkA kinase activity in the presence of inhibitors. Immulon 4HBX 384-well microtiter plates (Thermo part #8755) were coated with a 0.025 mg/mL solution of poly (Glu, Ala, Tyr; 6:3:1; Sigma P3899). Various concentrations of test compound, 2.5 nM TrkA (Invitrogen Corp., histidine-tagged recombinant human TrkA, cytoplasmic domain), and 500 uM ATP were incubated for 25 minutes at ambient temperature in the coated plates while shaking The assay buffer consisted of 25 mM MOPS pH 7.5, 0.005% (v/v) Triton X-100 and 5 mM MgCl2. The reaction mixture was removed from the plate by washing with PBS containing 0.1% (v/v) Tween 20. The phosphorylated reaction product was detected using 0.2 ug/mL of a phosphotyrosine specific monoclonal antibody (clone PY20) conjugated to horseradish peroxidase in conjunction with the TMB Peroxidase Substrate System (KPL).

>  <BAO Format ID>  (446) 
BAO_0000357

>  <BAO Label>  (446) 
single protein format

>  <Assay Organism>  (446) 
None

>  <Target ChEMBL ID>  (446) 
CHEMBL2815

>  <Target Name>  (446) 
Nerve growth factor receptor Trk-A

>  <Target Organism>  (446) 
Homo sapiens

>  <Target Type>  (446) 
SINGLE PROTEIN

>  <Document ChEMBL ID>  (446) 
CHEMBL3638907

>  <Source Description>  (446) 
BindingDB Database

>  <Document Journal>  (446) 
nan

>  <Document Year>  (446) 
2014.0

>  <Active>  (446) 
1.0

>  <bits>  (446) 
<rdkit.DataStructs.cDataStructs.ExplicitBitVect object at 0x00000159F78D1D90>

>  <Group>  (446) 
G2

$$$$

     RDKit          2D

 30 33  0  0  0  0  0  0  0  0999 V2000
   -3.2232   -6.8990    0.0000 C   0  0  0  0  0  0  0  0  0  0  0  0
   -4.6904   -6.5871    0.0000 C   0  0  0  0  0  0  0  0  0  0  0  0
   -6.1577   -6.2752    0.0000 C   0  0  0  0  0  0  0  0  0  0  0  0
   -5.0023   -8.0543    0.0000 N   0  0  0  0  0  0  0  0  0  0  0  0
   -4.3786   -5.1199    0.0000 C   0  0  0  0  0  0  0  0  0  0  0  0
   -2.9520   -4.6564    0.0000 N   0  0  0  0  0  0  0  0  0  0  0  0
   -2.6401   -3.1891    0.0000 C   0  0  0  0  0  0  0  0  0  0  0  0
   -3.7548   -2.1855    0.0000 O   0  0  0  0  0  0  0  0  0  0  0  0
   -1.2135   -2.7256    0.0000 C   0  0  0  0  0  0  0  0  0  0  0  0
   -0.0000   -3.6073    0.0000 C   0  0  0  0  0  0  0  0  0  0  0  0
    1.2135   -2.7256    0.0000 N   0  0  0  0  0  0  0  0  0  0  0  0
    0.7500   -1.2990    0.0000 N   0  0  0  0  0  0  0  0  0  0  0  0
    1.5000    0.0000    0.0000 C   0  0  0  0  0  0  0  0  0  0  0  0
    0.7500    1.2990    0.0000 C   0  0  0  0  0  0  0  0  0  0  0  0
   -0.7500    1.2990    0.0000 C   0  0  0  0  0  0  0  0  0  0  0  0
   -1.5000    2.5981    0.0000 N   0  0  0  0  0  0  0  0  0  0  0  0
   -2.9918    2.7549    0.0000 C   0  0  0  0  0  0  0  0  0  0  0  0
   -3.3037    4.2221    0.0000 C   0  0  0  0  0  0  0  0  0  0  0  0
   -2.0046    4.9721    0.0000 C   0  0  0  0  0  0  0  0  0  0  0  0
   -0.8899    3.9684    0.0000 C   0  0  0  0  0  0  0  0  0  0  0  0
    0.5773    4.2803    0.0000 C   0  0  0  0  0  0  0  0  0  0  0  0
    1.5810    3.1655    0.0000 C   0  0  0  0  0  0  0  0  0  0  0  0
    3.0482    3.4774    0.0000 C   0  0  0  0  0  0  0  0  0  0  0  0
    4.0519    2.3627    0.0000 F   0  0  0  0  0  0  0  0  0  0  0  0
    3.5118    4.9040    0.0000 C   0  0  0  0  0  0  0  0  0  0  0  0
    2.5081    6.0187    0.0000 C   0  0  0  0  0  0  0  0  0  0  0  0
    1.0409    5.7068    0.0000 C   0  0  0  0  0  0  0  0  0  0  0  0
    0.0372    6.8216    0.0000 F   0  0  0  0  0  0  0  0  0  0  0  0
   -1.5000    0.0000    0.0000 N   0  0  0  0  0  0  0  0  0  0  0  0
   -0.7500   -1.2990    0.0000 C   0  0  0  0  0  0  0  0  0  0  0  0
  1  2  1  0
  2  3  1  0
  2  4  1  0
  2  5  1  0
  5  6  1  0
  6  7  1  0
  7  8  2  0
  7  9  1  0
  9 10  1  0
 10 11  2  0
 11 12  1  0
 12 13  1  0
 13 14  2  0
 14 15  1  0
 15 16  1  0
 16 17  1  0
 17 18  1  0
 18 19  1  0
 19 20  1  0
 20 21  1  6
 21 22  2  0
 22 23  1  0
 23 24  1  0
 23 25  2  0
 25 26  1  0
 26 27  2  0
 27 28  1  0
 15 29  2  0
 29 30  1  0
 30  9  2  0
 30 12  1  0
 20 16  1  0
 27 21  1  0
M  END
>  <Compound_ID>  (447) 
CHEMBL3675934

>  <Molecule Name>  (447) 
nan

>  <Molecular Weight>  (447) 
414.46

>  <AlogP>  (447) 
2.82

>  <Smiles>  (447) 
CC(C)(N)CNC(=O)c1cnn2ccc(N3CCC[C@@H]3c3cc(F)ccc3F)nc12

>  <Standard Type>  (447) 
IC50

>  <Standard Relation>  (447) 
'='

>  <Standard Units>  (447) 
nM

>  <Standard Value>  (447) 
9.4

>  <Assay ChEMBL ID>  (447) 
CHEMBL3887070

>  <Assay Description>  (447) 
ELISA Assay: An enzyme-linked immunosorbant assay (ELISA) was used to assess TrkA kinase activity in the presence of inhibitors. Immulon 4HBX 384-well microtiter plates (Thermo part #8755) were coated with a 0.025 mg/mL solution of poly (Glu, Ala, Tyr; 6:3:1; Sigma P3899). Various concentrations of test compound, 2.5 nM TrkA (Invitrogen Corp., histidine-tagged recombinant human TrkA, cytoplasmic domain), and 500 uM ATP were incubated for 25 minutes at ambient temperature in the coated plates while shaking The assay buffer consisted of 25 mM MOPS pH 7.5, 0.005% (v/v) Triton X-100 and 5 mM MgCl2. The reaction mixture was removed from the plate by washing with PBS containing 0.1% (v/v) Tween 20. The phosphorylated reaction product was detected using 0.2 ug/mL of a phosphotyrosine specific monoclonal antibody (clone PY20) conjugated to horseradish peroxidase in conjunction with the TMB Peroxidase Substrate System (KPL).

>  <BAO Format ID>  (447) 
BAO_0000357

>  <BAO Label>  (447) 
single protein format

>  <Assay Organism>  (447) 
None

>  <Target ChEMBL ID>  (447) 
CHEMBL2815

>  <Target Name>  (447) 
Nerve growth factor receptor Trk-A

>  <Target Organism>  (447) 
Homo sapiens

>  <Target Type>  (447) 
SINGLE PROTEIN

>  <Document ChEMBL ID>  (447) 
CHEMBL3638907

>  <Source Description>  (447) 
BindingDB Database

>  <Document Journal>  (447) 
nan

>  <Document Year>  (447) 
2014.0

>  <Active>  (447) 
1.0

>  <bits>  (447) 
<rdkit.DataStructs.cDataStructs.ExplicitBitVect object at 0x00000159F78D2D50>

>  <Group>  (447) 
G2

$$$$

     RDKit          2D

 29 32  0  0  0  0  0  0  0  0999 V2000
    5.9262   -3.3786    0.0000 C   0  0  0  0  0  0  0  0  0  0  0  0
    5.4627   -1.9520    0.0000 C   0  0  0  0  0  0  0  0  0  0  0  0
    6.4664   -0.8373    0.0000 N   0  0  0  0  0  0  0  0  0  0  0  0
    6.0029    0.5893    0.0000 C   0  0  0  0  0  0  0  0  0  0  0  0
    4.5356    0.9012    0.0000 C   0  0  0  0  0  0  0  0  0  0  0  0
    4.0721    2.3277    0.0000 F   0  0  0  0  0  0  0  0  0  0  0  0
    3.5320   -0.2136    0.0000 C   0  0  0  0  0  0  0  0  0  0  0  0
    3.9955   -1.6402    0.0000 C   0  0  0  0  0  0  0  0  0  0  0  0
    2.9918   -2.7549    0.0000 C   0  0  0  0  0  0  0  0  0  0  0  0
    3.3037   -4.2221    0.0000 C   0  0  0  0  0  0  0  0  0  0  0  0
    2.0046   -4.9721    0.0000 C   0  0  0  0  0  0  0  0  0  0  0  0
    0.8899   -3.9684    0.0000 C   0  0  0  0  0  0  0  0  0  0  0  0
    1.5000   -2.5981    0.0000 N   0  0  0  0  0  0  0  0  0  0  0  0
    0.7500   -1.2990    0.0000 C   0  0  0  0  0  0  0  0  0  0  0  0
    1.5000    0.0000    0.0000 C   0  0  0  0  0  0  0  0  0  0  0  0
    0.7500    1.2990    0.0000 C   0  0  0  0  0  0  0  0  0  0  0  0
   -0.7500    1.2990    0.0000 N   0  0  0  0  0  0  0  0  0  0  0  0
   -1.7537    2.4138    0.0000 N   0  0  0  0  0  0  0  0  0  0  0  0
   -3.1240    1.8037    0.0000 C   0  0  0  0  0  0  0  0  0  0  0  0
   -2.9672    0.3119    0.0000 C   0  0  0  0  0  0  0  0  0  0  0  0
   -4.0819   -0.6918    0.0000 C   0  0  0  0  0  0  0  0  0  0  0  0
   -3.7701   -2.1590    0.0000 O   0  0  0  0  0  0  0  0  0  0  0  0
   -5.5085   -0.2283    0.0000 N   0  0  0  0  0  0  0  0  0  0  0  0
   -6.6232   -1.2320    0.0000 C   0  0  0  0  0  0  0  0  0  0  0  0
   -8.0498   -0.7685    0.0000 C   0  0  0  0  0  0  0  0  0  0  0  0
   -9.1645   -1.7722    0.0000 C   0  0  0  0  0  0  0  0  0  0  0  0
   -8.3617    0.6987    0.0000 O   0  0  0  0  0  0  0  0  0  0  0  0
   -1.5000    0.0000    0.0000 C   0  0  0  0  0  0  0  0  0  0  0  0
   -0.7500   -1.2990    0.0000 N   0  0  0  0  0  0  0  0  0  0  0  0
  1  2  1  0
  2  3  2  0
  3  4  1  0
  4  5  2  0
  5  6  1  0
  5  7  1  0
  7  8  2  0
  9  8  1  1
  9 10  1  0
 10 11  1  0
 11 12  1  0
 12 13  1  0
 13 14  1  0
 14 15  1  0
 15 16  2  0
 16 17  1  0
 17 18  1  0
 18 19  2  0
 19 20  1  0
 20 21  1  0
 21 22  2  0
 21 23  1  0
 23 24  1  0
 24 25  1  0
 25 26  1  1
 25 27  1  0
 20 28  2  0
 28 29  1  0
  8  2  1  0
 13  9  1  0
 29 14  2  0
 28 17  1  0
M  END
>  <Compound_ID>  (448) 
CHEMBL3676057

>  <Molecule Name>  (448) 
nan

>  <Molecular Weight>  (448) 
398.44

>  <AlogP>  (448) 
2.02

>  <Smiles>  (448) 
Cc1ncc(F)cc1[C@H]1CCCN1c1ccn2ncc(C(=O)NC[C@@H](C)O)c2n1

>  <Standard Type>  (448) 
IC50

>  <Standard Relation>  (448) 
'='

>  <Standard Units>  (448) 
nM

>  <Standard Value>  (448) 
76.4

>  <Assay ChEMBL ID>  (448) 
CHEMBL3887070

>  <Assay Description>  (448) 
ELISA Assay: An enzyme-linked immunosorbant assay (ELISA) was used to assess TrkA kinase activity in the presence of inhibitors. Immulon 4HBX 384-well microtiter plates (Thermo part #8755) were coated with a 0.025 mg/mL solution of poly (Glu, Ala, Tyr; 6:3:1; Sigma P3899). Various concentrations of test compound, 2.5 nM TrkA (Invitrogen Corp., histidine-tagged recombinant human TrkA, cytoplasmic domain), and 500 uM ATP were incubated for 25 minutes at ambient temperature in the coated plates while shaking The assay buffer consisted of 25 mM MOPS pH 7.5, 0.005% (v/v) Triton X-100 and 5 mM MgCl2. The reaction mixture was removed from the plate by washing with PBS containing 0.1% (v/v) Tween 20. The phosphorylated reaction product was detected using 0.2 ug/mL of a phosphotyrosine specific monoclonal antibody (clone PY20) conjugated to horseradish peroxidase in conjunction with the TMB Peroxidase Substrate System (KPL).

>  <BAO Format ID>  (448) 
BAO_0000357

>  <BAO Label>  (448) 
single protein format

>  <Assay Organism>  (448) 
None

>  <Target ChEMBL ID>  (448) 
CHEMBL2815

>  <Target Name>  (448) 
Nerve growth factor receptor Trk-A

>  <Target Organism>  (448) 
Homo sapiens

>  <Target Type>  (448) 
SINGLE PROTEIN

>  <Document ChEMBL ID>  (448) 
CHEMBL3638907

>  <Source Description>  (448) 
BindingDB Database

>  <Document Journal>  (448) 
nan

>  <Document Year>  (448) 
2014.0

>  <Active>  (448) 
1.0

>  <bits>  (448) 
<rdkit.DataStructs.cDataStructs.ExplicitBitVect object at 0x00000159F78D2570>

>  <Group>  (448) 
G2

$$$$

     RDKit          2D

 30 33  0  0  0  0  0  0  0  0999 V2000
   -2.9520   -4.6564    0.0000 N   0  0  0  0  0  0  0  0  0  0  0  0
   -2.6401   -3.1891    0.0000 C   0  0  0  0  0  0  0  0  0  0  0  0
   -3.7548   -2.1855    0.0000 O   0  0  0  0  0  0  0  0  0  0  0  0
   -1.2135   -2.7256    0.0000 C   0  0  0  0  0  0  0  0  0  0  0  0
   -0.0000   -3.6073    0.0000 C   0  0  0  0  0  0  0  0  0  0  0  0
    1.2135   -2.7256    0.0000 N   0  0  0  0  0  0  0  0  0  0  0  0
    0.7500   -1.2990    0.0000 N   0  0  0  0  0  0  0  0  0  0  0  0
    1.5000    0.0000    0.0000 C   0  0  0  0  0  0  0  0  0  0  0  0
    0.7500    1.2990    0.0000 C   0  0  0  0  0  0  0  0  0  0  0  0
   -0.7500    1.2990    0.0000 C   0  0  0  0  0  0  0  0  0  0  0  0
   -1.5000    2.5981    0.0000 N   0  0  0  0  0  0  0  0  0  0  0  0
   -2.9918    2.7549    0.0000 C   0  0  0  0  0  0  0  0  0  0  0  0
   -3.3037    4.2221    0.0000 C   0  0  0  0  0  0  0  0  0  0  0  0
   -2.0046    4.9721    0.0000 C   0  0  0  0  0  0  0  0  0  0  0  0
   -0.8899    3.9684    0.0000 C   0  0  0  0  0  0  0  0  0  0  0  0
    0.5773    4.2803    0.0000 C   0  0  0  0  0  0  0  0  0  0  0  0
    1.5810    3.1655    0.0000 C   0  0  0  0  0  0  0  0  0  0  0  0
    3.0482    3.4774    0.0000 C   0  0  0  0  0  0  0  0  0  0  0  0
    4.0519    2.3627    0.0000 F   0  0  0  0  0  0  0  0  0  0  0  0
    3.5118    4.9040    0.0000 C   0  0  0  0  0  0  0  0  0  0  0  0
    2.5081    6.0187    0.0000 C   0  0  0  0  0  0  0  0  0  0  0  0
    2.9716    7.4453    0.0000 O   0  0  0  0  0  0  0  0  0  0  0  0
    4.4388    7.7572    0.0000 C   0  0  0  0  0  0  0  0  0  0  0  0
    4.9023    9.1838    0.0000 C   0  0  0  0  0  0  0  0  0  0  0  0
    3.8986   10.2985    0.0000 O   0  0  0  0  0  0  0  0  0  0  0  0
    6.3696    9.4956    0.0000 C   0  0  0  0  0  0  0  0  0  0  0  0
    6.8331   10.9222    0.0000 O   0  0  0  0  0  0  0  0  0  0  0  0
    1.0409    5.7068    0.0000 C   0  0  0  0  0  0  0  0  0  0  0  0
   -1.5000    0.0000    0.0000 N   0  0  0  0  0  0  0  0  0  0  0  0
   -0.7500   -1.2990    0.0000 C   0  0  0  0  0  0  0  0  0  0  0  0
  1  2  1  0
  2  3  2  0
  2  4  1  0
  4  5  1  0
  5  6  2  0
  6  7  1  0
  7  8  1  0
  8  9  2  0
  9 10  1  0
 10 11  1  0
 11 12  1  0
 12 13  1  0
 13 14  1  0
 14 15  1  0
 15 16  1  6
 16 17  2  0
 17 18  1  0
 18 19  1  0
 18 20  2  0
 20 21  1  0
 21 22  1  0
 22 23  1  0
 23 24  1  0
 24 25  1  0
 24 26  1  0
 26 27  1  0
 21 28  2  0
 10 29  2  0
 29 30  1  0
 30  4  2  0
 30  7  1  0
 15 11  1  0
 28 16  1  0
M  END
>  <Compound_ID>  (449) 
CHEMBL3676075

>  <Molecule Name>  (449) 
nan

>  <Molecular Weight>  (449) 
415.43

>  <AlogP>  (449) 
1.04

>  <Smiles>  (449) 
NC(=O)c1cnn2ccc(N3CCC[C@@H]3c3cc(F)cc(OCC(O)CO)c3)nc12

>  <Standard Type>  (449) 
IC50

>  <Standard Relation>  (449) 
'='

>  <Standard Units>  (449) 
nM

>  <Standard Value>  (449) 
17.1

>  <Assay ChEMBL ID>  (449) 
CHEMBL3887070

>  <Assay Description>  (449) 
ELISA Assay: An enzyme-linked immunosorbant assay (ELISA) was used to assess TrkA kinase activity in the presence of inhibitors. Immulon 4HBX 384-well microtiter plates (Thermo part #8755) were coated with a 0.025 mg/mL solution of poly (Glu, Ala, Tyr; 6:3:1; Sigma P3899). Various concentrations of test compound, 2.5 nM TrkA (Invitrogen Corp., histidine-tagged recombinant human TrkA, cytoplasmic domain), and 500 uM ATP were incubated for 25 minutes at ambient temperature in the coated plates while shaking The assay buffer consisted of 25 mM MOPS pH 7.5, 0.005% (v/v) Triton X-100 and 5 mM MgCl2. The reaction mixture was removed from the plate by washing with PBS containing 0.1% (v/v) Tween 20. The phosphorylated reaction product was detected using 0.2 ug/mL of a phosphotyrosine specific monoclonal antibody (clone PY20) conjugated to horseradish peroxidase in conjunction with the TMB Peroxidase Substrate System (KPL).

>  <BAO Format ID>  (449) 
BAO_0000357

>  <BAO Label>  (449) 
single protein format

>  <Assay Organism>  (449) 
None

>  <Target ChEMBL ID>  (449) 
CHEMBL2815

>  <Target Name>  (449) 
Nerve growth factor receptor Trk-A

>  <Target Organism>  (449) 
Homo sapiens

>  <Target Type>  (449) 
SINGLE PROTEIN

>  <Document ChEMBL ID>  (449) 
CHEMBL3638907

>  <Source Description>  (449) 
BindingDB Database

>  <Document Journal>  (449) 
nan

>  <Document Year>  (449) 
2014.0

>  <Active>  (449) 
1.0

>  <bits>  (449) 
<rdkit.DataStructs.cDataStructs.ExplicitBitVect object at 0x00000159F78D3840>

>  <Group>  (449) 
G2

$$$$

     RDKit          2D

 32 36  0  0  0  0  0  0  0  0999 V2000
   -2.9520   -4.6564    0.0000 C   0  0  0  0  0  0  0  0  0  0  0  0
   -2.6401   -3.1891    0.0000 C   0  0  0  0  0  0  0  0  0  0  0  0
   -3.7548   -2.1855    0.0000 C   0  0  0  0  0  0  0  0  0  0  0  0
   -1.2135   -2.7256    0.0000 N   0  0  0  0  0  0  0  0  0  0  0  0
   -0.0000   -3.6073    0.0000 C   0  0  0  0  0  0  0  0  0  0  0  0
    1.2135   -2.7256    0.0000 C   0  0  0  0  0  0  0  0  0  0  0  0
    2.6401   -3.1891    0.0000 C   0  0  0  0  0  0  0  0  0  0  0  0
    3.7548   -2.1855    0.0000 O   0  0  0  0  0  0  0  0  0  0  0  0
    2.9520   -4.6564    0.0000 C   0  0  0  0  0  0  0  0  0  0  0  0
    1.8373   -5.6601    0.0000 C   0  0  0  0  0  0  0  0  0  0  0  0
    2.1491   -7.1273    0.0000 N   0  0  0  0  0  0  0  0  0  0  0  0
    3.5757   -7.5908    0.0000 C   0  0  0  0  0  0  0  0  0  0  0  0
    4.6904   -6.5871    0.0000 C   0  0  0  0  0  0  0  0  0  0  0  0
    6.1170   -7.0506    0.0000 N   0  0  0  0  0  0  0  0  0  0  0  0
    6.4289   -8.5179    0.0000 C   0  0  0  0  0  0  0  0  0  0  0  0
    5.3142   -9.5216    0.0000 O   0  0  0  0  0  0  0  0  0  0  0  0
    7.8555   -8.9814    0.0000 C   0  0  0  0  0  0  0  0  0  0  0  0
    9.0690   -8.0997    0.0000 C   0  0  0  0  0  0  0  0  0  0  0  0
   10.2825   -8.9814    0.0000 S   0  0  0  0  0  0  0  0  0  0  0  0
    9.8190  -10.4080    0.0000 C   0  0  0  0  0  0  0  0  0  0  0  0
   10.7007  -11.6215    0.0000 C   0  0  0  0  0  0  0  0  0  0  0  0
   10.4660  -13.1030    0.0000 C   0  0  0  0  0  0  0  0  0  0  0  0
   11.9476  -13.3377    0.0000 C   0  0  0  0  0  0  0  0  0  0  0  0
   12.1822  -11.8562    0.0000 C   0  0  0  0  0  0  0  0  0  0  0  0
    8.3190  -10.4080    0.0000 N   0  0  0  0  0  0  0  0  0  0  0  0
    4.3786   -5.1199    0.0000 C   0  0  0  0  0  0  0  0  0  0  0  0
    0.7500   -1.2990    0.0000 C   0  0  0  0  0  0  0  0  0  0  0  0
    1.5000    0.0000    0.0000 C   0  0  0  0  0  0  0  0  0  0  0  0
    0.7500    1.2990    0.0000 N   0  0  0  0  0  0  0  0  0  0  0  0
   -0.7500    1.2990    0.0000 C   0  0  0  0  0  0  0  0  0  0  0  0
   -1.5000    0.0000    0.0000 N   0  0  0  0  0  0  0  0  0  0  0  0
   -0.7500   -1.2990    0.0000 C   0  0  0  0  0  0  0  0  0  0  0  0
  1  2  1  0
  2  3  1  0
  2  4  1  0
  4  5  1  0
  5  6  2  0
  6  7  1  0
  7  8  2  0
  7  9  1  0
  9 10  2  0
 10 11  1  0
 11 12  2  0
 12 13  1  0
 13 14  1  0
 14 15  1  0
 15 16  2  0
 15 17  1  0
 17 18  2  0
 18 19  1  0
 19 20  1  0
 20 21  1  0
 21 22  1  0
 22 23  1  0
 23 24  1  0
 20 25  2  0
 13 26  2  0
  6 27  1  0
 27 28  2  0
 28 29  1  0
 29 30  2  0
 30 31  1  0
 31 32  2  0
 32  4  1  0
 26  9  1  0
 32 27  1  0
 25 17  1  0
 24 21  1  0
M  END
>  <Compound_ID>  (450) 
CHEMBL3666440

>  <Molecule Name>  (450) 
nan

>  <Molecular Weight>  (450) 
446.54

>  <AlogP>  (450) 
4.61

>  <Smiles>  (450) 
CC(C)n1cc(C(=O)c2cncc(NC(=O)c3csc(C4CCC4)n3)c2)c2cncnc21

>  <Standard Type>  (450) 
IC50

>  <Standard Relation>  (450) 
'='

>  <Standard Units>  (450) 
nM

>  <Standard Value>  (450) 
4.06

>  <Assay ChEMBL ID>  (450) 
CHEMBL3887033

>  <Assay Description>  (450) 
Enzyme Assay: Isolated TRK Enzyme assays use the HTRF KinEASE-TK kit (Cisbio Cat# 62TK0PEJ) with recombinant His-tagged cytoplasmic domains of each TRK receptor sourced from Invitrogen (see table below). This activity-assay measures the phosphorylation of tyrosine residues within a substrate from the HTRF kit which has been validated by Cisbio for a variety of tyrosine kinases including the TRK receptors. Assay details: Target:TRKA; Invitrogen Cat# PV3144; Amino acids:aa 441-796; FAC enzyme:4nM; FAC ATP:40uM; Assay Reaction Time:35min.

>  <BAO Format ID>  (450) 
BAO_0000357

>  <BAO Label>  (450) 
single protein format

>  <Assay Organism>  (450) 
None

>  <Target ChEMBL ID>  (450) 
CHEMBL2815

>  <Target Name>  (450) 
Nerve growth factor receptor Trk-A

>  <Target Organism>  (450) 
Homo sapiens

>  <Target Type>  (450) 
SINGLE PROTEIN

>  <Document ChEMBL ID>  (450) 
CHEMBL3639348

>  <Source Description>  (450) 
BindingDB Database

>  <Document Journal>  (450) 
nan

>  <Document Year>  (450) 
2014.0

>  <Active>  (450) 
1.0

>  <bits>  (450) 
<rdkit.DataStructs.cDataStructs.ExplicitBitVect object at 0x00000159F78D1C40>

>  <Group>  (450) 
G2

$$$$

     RDKit          2D

 33 37  0  0  0  0  0  0  0  0999 V2000
   -8.0346   -3.5760    0.0000 C   0  0  0  0  0  0  0  0  0  0  0  0
   -6.9199   -4.5797    0.0000 N   0  0  0  0  0  0  0  0  0  0  0  0
   -5.4933   -4.1162    0.0000 N   0  0  0  0  0  0  0  0  0  0  0  0
   -4.3786   -5.1199    0.0000 C   0  0  0  0  0  0  0  0  0  0  0  0
   -2.9520   -4.6564    0.0000 C   0  0  0  0  0  0  0  0  0  0  0  0
   -1.8373   -5.6601    0.0000 O   0  0  0  0  0  0  0  0  0  0  0  0
   -2.6401   -3.1891    0.0000 N   0  0  0  0  0  0  0  0  0  0  0  0
   -1.2135   -2.7256    0.0000 C   0  0  0  0  0  0  0  0  0  0  0  0
   -0.0000   -3.6073    0.0000 C   0  0  0  0  0  0  0  0  0  0  0  0
    1.2135   -2.7256    0.0000 N   0  0  0  0  0  0  0  0  0  0  0  0
    0.7500   -1.2990    0.0000 C   0  0  0  0  0  0  0  0  0  0  0  0
    1.5000    0.0000    0.0000 C   0  0  0  0  0  0  0  0  0  0  0  0
    0.7500    1.2990    0.0000 C   0  0  0  0  0  0  0  0  0  0  0  0
   -0.7500    1.2990    0.0000 C   0  0  0  0  0  0  0  0  0  0  0  0
   -1.5000    2.5981    0.0000 N   0  0  0  0  0  0  0  0  0  0  0  0
   -2.9918    2.7549    0.0000 C   0  0  0  0  0  0  0  0  0  0  0  0
   -3.3037    4.2221    0.0000 C   0  0  0  0  0  0  0  0  0  0  0  0
   -2.0046    4.9721    0.0000 C   0  0  0  0  0  0  0  0  0  0  0  0
   -0.8899    3.9684    0.0000 C   0  0  0  0  0  0  0  0  0  0  0  0
    0.5773    4.2803    0.0000 C   0  0  0  0  0  0  0  0  0  0  0  0
    1.5810    3.1655    0.0000 C   0  0  0  0  0  0  0  0  0  0  0  0
    3.0482    3.4774    0.0000 C   0  0  0  0  0  0  0  0  0  0  0  0
    4.0519    2.3627    0.0000 F   0  0  0  0  0  0  0  0  0  0  0  0
    3.5118    4.9040    0.0000 C   0  0  0  0  0  0  0  0  0  0  0  0
    2.5081    6.0187    0.0000 C   0  0  0  0  0  0  0  0  0  0  0  0
    1.0409    5.7068    0.0000 C   0  0  0  0  0  0  0  0  0  0  0  0
    0.0372    6.8216    0.0000 F   0  0  0  0  0  0  0  0  0  0  0  0
   -1.5000    0.0000    0.0000 N   0  0  0  0  0  0  0  0  0  0  0  0
   -0.7500   -1.2990    0.0000 N   0  0  0  0  0  0  0  0  0  0  0  0
   -4.6904   -6.5871    0.0000 C   0  0  0  0  0  0  0  0  0  0  0  0
   -6.1170   -7.0506    0.0000 C   0  0  0  0  0  0  0  0  0  0  0  0
   -7.2317   -6.0469    0.0000 C   0  0  0  0  0  0  0  0  0  0  0  0
   -8.6583   -6.5105    0.0000 O   0  0  0  0  0  0  0  0  0  0  0  0
  1  2  1  0
  2  3  1  0
  3  4  2  0
  4  5  1  0
  5  6  2  0
  5  7  1  0
  7  8  1  0
  8  9  2  0
  9 10  1  0
 10 11  2  0
 11 12  1  0
 12 13  2  0
 13 14  1  0
 14 15  1  0
 15 16  1  0
 16 17  1  0
 17 18  1  0
 18 19  1  0
 19 20  1  6
 20 21  2  0
 21 22  1  0
 22 23  1  0
 22 24  2  0
 24 25  1  0
 25 26  2  0
 26 27  1  0
 14 28  2  0
 28 29  1  0
  4 30  1  0
 30 31  2  0
 31 32  1  0
 32 33  2  0
 32  2  1  0
 29  8  1  0
 29 11  1  0
 19 15  1  0
 26 20  1  0
M  END
>  <Compound_ID>  (451) 
CHEMBL4106786

>  <Molecule Name>  (451) 
nan

>  <Molecular Weight>  (451) 
451.44

>  <AlogP>  (451) 
2.7

>  <Smiles>  (451) 
Cn1nc(C(=O)Nc2cnc3ccc(N4CCC[C@@H]4c4cc(F)ccc4F)nn23)ccc1=O

>  <Standard Type>  (451) 
IC50

>  <Standard Relation>  (451) 
'='

>  <Standard Units>  (451) 
nM

>  <Standard Value>  (451) 
2.3

>  <Assay ChEMBL ID>  (451) 
CHEMBL3887826

>  <Assay Description>  (451) 
ELISA Assay: An enzyme-linked immunosorbant assay (ELISA) was used to assess TrkA kinase activity in the presence of inhibitors. Immulon 4HBX 384-well microtiter plates (Thermo part #8755) were coated with a 0.025 mg/mL solution of poly (Glu, Ala, Tyr; 6:3:1; Sigma P3899). Various concentrations of test compound, 2.5 nM TrkA (Invitrogen Corp., histidine-tagged recombinant human TrkA, cytoplasmic domain), and 500 uM ATP were incubated for 25 minutes at ambient temperature in the coated plates while shaking. The assay buffer consisted of 25 mM MOPS pH 7.5, 0.005% (v/v) Triton X-100 and 5 mM MgCl2. The reaction mixture was removed from the plate by washing with PBS containing 0.1% (v/v) Tween 20. The phosphorylated reaction product was detected using 0.2 ug/mL of a phosphotyrosine specific monoclonal antibody (clone PY20) conjugated to horseradish peroxidase in conjunction with the TMB Peroxidase Substrate System (KPL).

>  <BAO Format ID>  (451) 
BAO_0000357

>  <BAO Label>  (451) 
single protein format

>  <Assay Organism>  (451) 
None

>  <Target ChEMBL ID>  (451) 
CHEMBL2815

>  <Target Name>  (451) 
Nerve growth factor receptor Trk-A

>  <Target Organism>  (451) 
Homo sapiens

>  <Target Type>  (451) 
SINGLE PROTEIN

>  <Document ChEMBL ID>  (451) 
CHEMBL3886465

>  <Source Description>  (451) 
BindingDB Database

>  <Document Journal>  (451) 
nan

>  <Document Year>  (451) 
2016.0

>  <Active>  (451) 
1.0

>  <bits>  (451) 
<rdkit.DataStructs.cDataStructs.ExplicitBitVect object at 0x00000159F5472260>

>  <Group>  (451) 
G2

$$$$

     RDKit          2D

 36 39  0  0  0  0  0  0  0  0999 V2000
   -2.1766   -4.6157    0.0000 C   0  0  0  0  0  0  0  0  0  0  0  0
   -2.6401   -3.1891    0.0000 C   0  0  0  0  0  0  0  0  0  0  0  0
   -3.1036   -1.7626    0.0000 C   0  0  0  0  0  0  0  0  0  0  0  0
   -4.0667   -3.6527    0.0000 C   0  0  0  0  0  0  0  0  0  0  0  0
   -5.1814   -2.6490    0.0000 O   0  0  0  0  0  0  0  0  0  0  0  0
   -1.2135   -2.7256    0.0000 N   0  0  0  0  0  0  0  0  0  0  0  0
   -0.0000   -3.6073    0.0000 C   0  0  0  0  0  0  0  0  0  0  0  0
    1.2135   -2.7256    0.0000 C   0  0  0  0  0  0  0  0  0  0  0  0
    2.6401   -3.1891    0.0000 C   0  0  0  0  0  0  0  0  0  0  0  0
    3.7548   -2.1855    0.0000 O   0  0  0  0  0  0  0  0  0  0  0  0
    2.9520   -4.6564    0.0000 C   0  0  0  0  0  0  0  0  0  0  0  0
    1.8373   -5.6601    0.0000 C   0  0  0  0  0  0  0  0  0  0  0  0
    2.1491   -7.1273    0.0000 N   0  0  0  0  0  0  0  0  0  0  0  0
    3.5757   -7.5908    0.0000 C   0  0  0  0  0  0  0  0  0  0  0  0
    4.6904   -6.5871    0.0000 C   0  0  0  0  0  0  0  0  0  0  0  0
    6.1170   -7.0506    0.0000 N   0  0  0  0  0  0  0  0  0  0  0  0
    6.4289   -8.5179    0.0000 C   0  0  0  0  0  0  0  0  0  0  0  0
    5.3142   -9.5216    0.0000 O   0  0  0  0  0  0  0  0  0  0  0  0
    7.8555   -8.9814    0.0000 C   0  0  0  0  0  0  0  0  0  0  0  0
    8.1673  -10.4486    0.0000 N   0  0  0  0  0  0  0  0  0  0  0  0
    9.5377  -11.0587    0.0000 C   0  0  0  0  0  0  0  0  0  0  0  0
    9.3809  -12.5505    0.0000 C   0  0  0  0  0  0  0  0  0  0  0  0
   10.4956  -13.5542    0.0000 C   0  0  0  0  0  0  0  0  0  0  0  0
   11.6103  -14.5579    0.0000 F   0  0  0  0  0  0  0  0  0  0  0  0
    9.4919  -14.6689    0.0000 F   0  0  0  0  0  0  0  0  0  0  0  0
   11.4993  -12.4395    0.0000 F   0  0  0  0  0  0  0  0  0  0  0  0
    7.9136  -12.8624    0.0000 C   0  0  0  0  0  0  0  0  0  0  0  0
    7.1636  -11.5633    0.0000 N   0  0  0  0  0  0  0  0  0  0  0  0
    4.3786   -5.1199    0.0000 C   0  0  0  0  0  0  0  0  0  0  0  0
    0.7500   -1.2990    0.0000 C   0  0  0  0  0  0  0  0  0  0  0  0
    1.5000    0.0000    0.0000 C   0  0  0  0  0  0  0  0  0  0  0  0
    0.7500    1.2990    0.0000 N   0  0  0  0  0  0  0  0  0  0  0  0
   -0.7500    1.2990    0.0000 C   0  0  0  0  0  0  0  0  0  0  0  0
   -1.5000    2.5981    0.0000 N   0  0  0  0  0  0  0  0  0  0  0  0
   -1.5000    0.0000    0.0000 N   0  0  0  0  0  0  0  0  0  0  0  0
   -0.7500   -1.2990    0.0000 C   0  0  0  0  0  0  0  0  0  0  0  0
  1  2  1  0
  2  3  1  0
  2  4  1  0
  4  5  1  0
  2  6  1  0
  6  7  1  0
  7  8  2  0
  8  9  1  0
  9 10  2  0
  9 11  1  0
 11 12  2  0
 12 13  1  0
 13 14  2  0
 14 15  1  0
 15 16  1  0
 16 17  1  0
 17 18  2  0
 17 19  1  0
 19 20  1  0
 20 21  1  0
 21 22  2  0
 22 23  1  0
 23 24  1  0
 23 25  1  0
 23 26  1  0
 22 27  1  0
 27 28  2  0
 15 29  2  0
  8 30  1  0
 30 31  2  0
 31 32  1  0
 32 33  2  0
 33 34  1  0
 33 35  1  0
 35 36  2  0
 36  6  1  0
 29 11  1  0
 36 30  1  0
 28 20  1  0
M  END
>  <Compound_ID>  (452) 
CHEMBL3671436

>  <Molecule Name>  (452) 
nan

>  <Molecular Weight>  (452) 
502.46

>  <AlogP>  (452) 
2.22

>  <Smiles>  (452) 
CC(C)(CO)n1cc(C(=O)c2cncc(NC(=O)Cn3cc(C(F)(F)F)cn3)c2)c2cnc(N)nc21

>  <Standard Type>  (452) 
IC50

>  <Standard Relation>  (452) 
'='

>  <Standard Units>  (452) 
nM

>  <Standard Value>  (452) 
3.11

>  <Assay ChEMBL ID>  (452) 
CHEMBL3887033

>  <Assay Description>  (452) 
Enzyme Assay: Isolated TRK Enzyme assays use the HTRF KinEASE-TK kit (Cisbio Cat# 62TK0PEJ) with recombinant His-tagged cytoplasmic domains of each TRK receptor sourced from Invitrogen (see table below). This activity-assay measures the phosphorylation of tyrosine residues within a substrate from the HTRF kit which has been validated by Cisbio for a variety of tyrosine kinases including the TRK receptors. Assay details: Target:TRKA; Invitrogen Cat# PV3144; Amino acids:aa 441-796; FAC enzyme:4nM; FAC ATP:40uM; Assay Reaction Time:35min.

>  <BAO Format ID>  (452) 
BAO_0000357

>  <BAO Label>  (452) 
single protein format

>  <Assay Organism>  (452) 
None

>  <Target ChEMBL ID>  (452) 
CHEMBL2815

>  <Target Name>  (452) 
Nerve growth factor receptor Trk-A

>  <Target Organism>  (452) 
Homo sapiens

>  <Target Type>  (452) 
SINGLE PROTEIN

>  <Document ChEMBL ID>  (452) 
CHEMBL3639348

>  <Source Description>  (452) 
BindingDB Database

>  <Document Journal>  (452) 
nan

>  <Document Year>  (452) 
2014.0

>  <Active>  (452) 
1.0

>  <bits>  (452) 
<rdkit.DataStructs.cDataStructs.ExplicitBitVect object at 0x00000159F5471C40>

>  <Group>  (452) 
G2

$$$$

     RDKit          2D

 32 36  0  0  0  0  0  0  0  0999 V2000
   -1.8373   -5.6601    0.0000 O   0  0  0  0  0  0  0  0  0  0  0  0
   -2.9520   -4.6564    0.0000 C   0  0  0  0  0  0  0  0  0  0  0  0
   -2.6401   -3.1891    0.0000 N   0  0  0  0  0  0  0  0  0  0  0  0
   -1.2135   -2.7256    0.0000 C   0  0  0  0  0  0  0  0  0  0  0  0
   -0.0000   -3.6073    0.0000 C   0  0  0  0  0  0  0  0  0  0  0  0
    1.2135   -2.7256    0.0000 N   0  0  0  0  0  0  0  0  0  0  0  0
    0.7500   -1.2990    0.0000 N   0  0  0  0  0  0  0  0  0  0  0  0
    1.5000    0.0000    0.0000 C   0  0  0  0  0  0  0  0  0  0  0  0
    0.7500    1.2990    0.0000 C   0  0  0  0  0  0  0  0  0  0  0  0
   -0.7500    1.2990    0.0000 C   0  0  0  0  0  0  0  0  0  0  0  0
   -1.5000    2.5981    0.0000 N   0  0  0  0  0  0  0  0  0  0  0  0
   -2.9918    2.7549    0.0000 C   0  0  0  0  0  0  0  0  0  0  0  0
   -3.3037    4.2221    0.0000 C   0  0  0  0  0  0  0  0  0  0  0  0
   -2.0046    4.9721    0.0000 C   0  0  0  0  0  0  0  0  0  0  0  0
   -0.8899    3.9684    0.0000 C   0  0  0  0  0  0  0  0  0  0  0  0
    0.5773    4.2803    0.0000 C   0  0  0  0  0  0  0  0  0  0  0  0
    1.5810    3.1655    0.0000 C   0  0  0  0  0  0  0  0  0  0  0  0
    3.0482    3.4774    0.0000 C   0  0  0  0  0  0  0  0  0  0  0  0
    4.0519    2.3627    0.0000 F   0  0  0  0  0  0  0  0  0  0  0  0
    3.5118    4.9040    0.0000 C   0  0  0  0  0  0  0  0  0  0  0  0
    2.5081    6.0187    0.0000 C   0  0  0  0  0  0  0  0  0  0  0  0
    1.0409    5.7068    0.0000 C   0  0  0  0  0  0  0  0  0  0  0  0
    0.0372    6.8216    0.0000 F   0  0  0  0  0  0  0  0  0  0  0  0
   -1.5000    0.0000    0.0000 N   0  0  0  0  0  0  0  0  0  0  0  0
   -0.7500   -1.2990    0.0000 C   0  0  0  0  0  0  0  0  0  0  0  0
   -4.3786   -5.1199    0.0000 C   0  0  0  0  0  0  0  0  0  0  0  0
   -5.0828   -3.7955    0.0000 C   0  0  0  0  0  0  0  0  0  0  0  0
   -5.7870   -2.4711    0.0000 F   0  0  0  0  0  0  0  0  0  0  0  0
   -6.4072   -4.4997    0.0000 F   0  0  0  0  0  0  0  0  0  0  0  0
   -3.7583   -3.0913    0.0000 F   0  0  0  0  0  0  0  0  0  0  0  0
   -5.5606   -6.0434    0.0000 C   0  0  0  0  0  0  0  0  0  0  0  0
   -4.1698   -6.6053    0.0000 C   0  0  0  0  0  0  0  0  0  0  0  0
  1  2  2  0
  2  3  1  0
  3  4  1  0
  4  5  1  0
  5  6  2  0
  6  7  1  0
  7  8  1  0
  8  9  2  0
  9 10  1  0
 10 11  1  0
 11 12  1  0
 12 13  1  0
 13 14  1  0
 14 15  1  0
 15 16  1  6
 16 17  2  0
 17 18  1  0
 18 19  1  0
 18 20  2  0
 20 21  1  0
 21 22  2  0
 22 23  1  0
 10 24  2  0
 24 25  1  0
  2 26  1  0
 26 27  1  0
 27 28  1  0
 27 29  1  0
 27 30  1  0
 26 31  1  0
 31 32  1  0
 25  4  2  0
 32 26  1  0
 25  7  1  0
 15 11  1  0
 22 16  1  0
M  END
>  <Compound_ID>  (453) 
CHEMBL4113878

>  <Molecule Name>  (453) 
nan

>  <Molecular Weight>  (453) 
451.4

>  <AlogP>  (453) 
4.63

>  <Smiles>  (453) 
O=C(Nc1cnn2ccc(N3CCC[C@@H]3c3cc(F)ccc3F)nc12)C1(C(F)(F)F)CC1

>  <Standard Type>  (453) 
IC50

>  <Standard Relation>  (453) 
'='

>  <Standard Units>  (453) 
nM

>  <Standard Value>  (453) 
5.2

>  <Assay ChEMBL ID>  (453) 
CHEMBL3887076

>  <Assay Description>  (453) 
ELISA Assay: An enzyme-linked immunosorbant assay (ELISA) was used to assess TrkA kinase activity in the presence of inhibitors. Immulon 4HBX 384-well microtiter plates (Thermo part #8755) were coated with a 0.025 mg/mL solution of poly (Glu, Ala, Tyr; 6:3:1; Sigma P3899). Various concentrations of test compound, 2.5 nM TrkA (Invitrogen Corp., histidine-tagged recombinant human TrkA, cytoplasmic domain), and 500 uM ATP were incubated for 25 minutes at ambient temperature in the coated plates while shaking. The assay buffer consisted of 25 mM MOPS pH 7.5, 0.005% (v/v) Triton X-100 and 5 mM MgCl2. The reaction mixture was removed from the plate by washing with PBS containing 0.1% (v/v) Tween 20. The phosphorylated reaction product was detected using 0.2 ug/mL of a phosphotyrosine specific monoclonal antibody (clone PY20) conjugated to horseradish peroxidase in conjunction with the TMB Peroxidase Substrate System (KPL).

>  <BAO Format ID>  (453) 
BAO_0000357

>  <BAO Label>  (453) 
single protein format

>  <Assay Organism>  (453) 
None

>  <Target ChEMBL ID>  (453) 
CHEMBL2815

>  <Target Name>  (453) 
Nerve growth factor receptor Trk-A

>  <Target Organism>  (453) 
Homo sapiens

>  <Target Type>  (453) 
SINGLE PROTEIN

>  <Document ChEMBL ID>  (453) 
CHEMBL3886151

>  <Source Description>  (453) 
BindingDB Database

>  <Document Journal>  (453) 
nan

>  <Document Year>  (453) 
2014.0

>  <Active>  (453) 
1.0

>  <bits>  (453) 
<rdkit.DataStructs.cDataStructs.ExplicitBitVect object at 0x00000159F54710E0>

>  <Group>  (453) 
G2

$$$$

     RDKit          2D

 31 34  0  0  0  0  0  0  0  0999 V2000
    7.3934   -3.6905    0.0000 C   0  0  0  0  0  0  0  0  0  0  0  0
    5.9262   -3.3786    0.0000 O   0  0  0  0  0  0  0  0  0  0  0  0
    5.4627   -1.9520    0.0000 C   0  0  0  0  0  0  0  0  0  0  0  0
    6.4664   -0.8373    0.0000 N   0  0  0  0  0  0  0  0  0  0  0  0
    6.0029    0.5893    0.0000 C   0  0  0  0  0  0  0  0  0  0  0  0
    4.5356    0.9012    0.0000 C   0  0  0  0  0  0  0  0  0  0  0  0
    4.0721    2.3277    0.0000 F   0  0  0  0  0  0  0  0  0  0  0  0
    3.5320   -0.2136    0.0000 C   0  0  0  0  0  0  0  0  0  0  0  0
    3.9955   -1.6402    0.0000 C   0  0  0  0  0  0  0  0  0  0  0  0
    2.9918   -2.7549    0.0000 C   0  0  0  0  0  0  0  0  0  0  0  0
    3.3037   -4.2221    0.0000 C   0  0  0  0  0  0  0  0  0  0  0  0
    2.0046   -4.9721    0.0000 C   0  0  0  0  0  0  0  0  0  0  0  0
    0.8899   -3.9684    0.0000 C   0  0  0  0  0  0  0  0  0  0  0  0
    1.5000   -2.5981    0.0000 N   0  0  0  0  0  0  0  0  0  0  0  0
    0.7500   -1.2990    0.0000 C   0  0  0  0  0  0  0  0  0  0  0  0
    1.5000    0.0000    0.0000 C   0  0  0  0  0  0  0  0  0  0  0  0
    0.7500    1.2990    0.0000 C   0  0  0  0  0  0  0  0  0  0  0  0
   -0.7500    1.2990    0.0000 N   0  0  0  0  0  0  0  0  0  0  0  0
   -1.7537    2.4138    0.0000 N   0  0  0  0  0  0  0  0  0  0  0  0
   -3.1240    1.8037    0.0000 C   0  0  0  0  0  0  0  0  0  0  0  0
   -2.9672    0.3119    0.0000 C   0  0  0  0  0  0  0  0  0  0  0  0
   -4.0819   -0.6918    0.0000 C   0  0  0  0  0  0  0  0  0  0  0  0
   -3.7701   -2.1590    0.0000 O   0  0  0  0  0  0  0  0  0  0  0  0
   -5.5085   -0.2283    0.0000 N   0  0  0  0  0  0  0  0  0  0  0  0
   -6.6232   -1.2320    0.0000 C   0  0  0  0  0  0  0  0  0  0  0  0
   -8.0498   -0.7685    0.0000 C   0  0  0  0  0  0  0  0  0  0  0  0
   -8.3617    0.6987    0.0000 O   0  0  0  0  0  0  0  0  0  0  0  0
   -9.1645   -1.7722    0.0000 C   0  0  0  0  0  0  0  0  0  0  0  0
  -10.5911   -1.3086    0.0000 O   0  0  0  0  0  0  0  0  0  0  0  0
   -1.5000    0.0000    0.0000 C   0  0  0  0  0  0  0  0  0  0  0  0
   -0.7500   -1.2990    0.0000 N   0  0  0  0  0  0  0  0  0  0  0  0
  1  2  1  0
  2  3  1  0
  3  4  2  0
  4  5  1  0
  5  6  2  0
  6  7  1  0
  6  8  1  0
  8  9  2  0
 10  9  1  1
 10 11  1  0
 11 12  1  0
 12 13  1  0
 13 14  1  0
 14 15  1  0
 15 16  1  0
 16 17  2  0
 17 18  1  0
 18 19  1  0
 19 20  2  0
 20 21  1  0
 21 22  1  0
 22 23  2  0
 22 24  1  0
 24 25  1  0
 25 26  1  0
 26 27  1  1
 26 28  1  0
 28 29  1  0
 21 30  2  0
 30 31  1  0
  9  3  1  0
 14 10  1  0
 31 15  2  0
 30 18  1  0
M  END
>  <Compound_ID>  (454) 
CHEMBL3676017

>  <Molecule Name>  (454) 
nan

>  <Molecular Weight>  (454) 
430.44

>  <AlogP>  (454) 
0.7

>  <Smiles>  (454) 
COc1ncc(F)cc1[C@H]1CCCN1c1ccn2ncc(C(=O)NC[C@H](O)CO)c2n1

>  <Standard Type>  (454) 
IC50

>  <Standard Relation>  (454) 
'='

>  <Standard Units>  (454) 
nM

>  <Standard Value>  (454) 
8.0

>  <Assay ChEMBL ID>  (454) 
CHEMBL3887070

>  <Assay Description>  (454) 
ELISA Assay: An enzyme-linked immunosorbant assay (ELISA) was used to assess TrkA kinase activity in the presence of inhibitors. Immulon 4HBX 384-well microtiter plates (Thermo part #8755) were coated with a 0.025 mg/mL solution of poly (Glu, Ala, Tyr; 6:3:1; Sigma P3899). Various concentrations of test compound, 2.5 nM TrkA (Invitrogen Corp., histidine-tagged recombinant human TrkA, cytoplasmic domain), and 500 uM ATP were incubated for 25 minutes at ambient temperature in the coated plates while shaking The assay buffer consisted of 25 mM MOPS pH 7.5, 0.005% (v/v) Triton X-100 and 5 mM MgCl2. The reaction mixture was removed from the plate by washing with PBS containing 0.1% (v/v) Tween 20. The phosphorylated reaction product was detected using 0.2 ug/mL of a phosphotyrosine specific monoclonal antibody (clone PY20) conjugated to horseradish peroxidase in conjunction with the TMB Peroxidase Substrate System (KPL).

>  <BAO Format ID>  (454) 
BAO_0000357

>  <BAO Label>  (454) 
single protein format

>  <Assay Organism>  (454) 
None

>  <Target ChEMBL ID>  (454) 
CHEMBL2815

>  <Target Name>  (454) 
Nerve growth factor receptor Trk-A

>  <Target Organism>  (454) 
Homo sapiens

>  <Target Type>  (454) 
SINGLE PROTEIN

>  <Document ChEMBL ID>  (454) 
CHEMBL3638907

>  <Source Description>  (454) 
BindingDB Database

>  <Document Journal>  (454) 
nan

>  <Document Year>  (454) 
2014.0

>  <Active>  (454) 
1.0

>  <bits>  (454) 
<rdkit.DataStructs.cDataStructs.ExplicitBitVect object at 0x00000159F5470200>

>  <Group>  (454) 
G2

$$$$

     RDKit          2D

 39 43  0  0  0  0  0  0  0  0999 V2000
   -2.9520   -4.6564    0.0000 C   0  0  0  0  0  0  0  0  0  0  0  0
   -2.6401   -3.1891    0.0000 C   0  0  0  0  0  0  0  0  0  0  0  0
   -3.7548   -2.1855    0.0000 C   0  0  0  0  0  0  0  0  0  0  0  0
   -1.2135   -2.7256    0.0000 C   0  0  0  0  0  0  0  0  0  0  0  0
   -0.0000   -3.6073    0.0000 C   0  0  0  0  0  0  0  0  0  0  0  0
    1.2135   -2.7256    0.0000 C   0  0  0  0  0  0  0  0  0  0  0  0
    2.6401   -3.1891    0.0000 C   0  0  0  0  0  0  0  0  0  0  0  0
    3.7548   -2.1855    0.0000 O   0  0  0  0  0  0  0  0  0  0  0  0
    2.9520   -4.6564    0.0000 C   0  0  0  0  0  0  0  0  0  0  0  0
    1.8373   -5.6601    0.0000 C   0  0  0  0  0  0  0  0  0  0  0  0
    2.1491   -7.1273    0.0000 C   0  0  0  0  0  0  0  0  0  0  0  0
    3.5757   -7.5908    0.0000 C   0  0  0  0  0  0  0  0  0  0  0  0
    4.6904   -6.5871    0.0000 C   0  0  0  0  0  0  0  0  0  0  0  0
    6.1170   -7.0506    0.0000 N   0  0  0  0  0  0  0  0  0  0  0  0
    6.4289   -8.5179    0.0000 C   0  0  0  0  0  0  0  0  0  0  0  0
    5.3142   -9.5216    0.0000 O   0  0  0  0  0  0  0  0  0  0  0  0
    7.8555   -8.9814    0.0000 N   0  0  0  0  0  0  0  0  0  0  0  0
    8.1673  -10.4486    0.0000 C   0  0  0  0  0  0  0  0  0  0  0  0
    7.0526  -11.4523    0.0000 C   0  0  0  0  0  0  0  0  0  0  0  0
    7.3645  -12.9195    0.0000 C   0  0  0  0  0  0  0  0  0  0  0  0
    8.7911  -13.3831    0.0000 C   0  0  0  0  0  0  0  0  0  0  0  0
    9.1029  -14.8503    0.0000 O   0  0  0  0  0  0  0  0  0  0  0  0
    7.9882  -15.8540    0.0000 C   0  0  0  0  0  0  0  0  0  0  0  0
    8.3001  -17.3212    0.0000 C   0  0  0  0  0  0  0  0  0  0  0  0
    7.1854  -18.3249    0.0000 C   0  0  0  0  0  0  0  0  0  0  0  0
    7.4972  -19.7921    0.0000 C   0  0  0  0  0  0  0  0  0  0  0  0
    8.9238  -20.2556    0.0000 C   0  0  0  0  0  0  0  0  0  0  0  0
   10.0385  -19.2519    0.0000 C   0  0  0  0  0  0  0  0  0  0  0  0
    9.7267  -17.7847    0.0000 C   0  0  0  0  0  0  0  0  0  0  0  0
    9.9058  -12.3794    0.0000 C   0  0  0  0  0  0  0  0  0  0  0  0
    9.5939  -10.9121    0.0000 C   0  0  0  0  0  0  0  0  0  0  0  0
    4.3786   -5.1199    0.0000 C   0  0  0  0  0  0  0  0  0  0  0  0
    0.7500   -1.2990    0.0000 C   0  0  0  0  0  0  0  0  0  0  0  0
    1.5000    0.0000    0.0000 C   0  0  0  0  0  0  0  0  0  0  0  0
    3.0000    0.0000    0.0000 N   0  0  0  0  0  0  0  0  0  0  0  0
    0.7500    1.2990    0.0000 N   0  0  0  0  0  0  0  0  0  0  0  0
   -0.7500    1.2990    0.0000 C   0  0  0  0  0  0  0  0  0  0  0  0
   -1.5000    0.0000    0.0000 N   0  0  0  0  0  0  0  0  0  0  0  0
   -0.7500   -1.2990    0.0000 N   0  0  0  0  0  0  0  0  0  0  0  0
  1  2  1  0
  2  3  1  0
  2  4  1  0
  4  5  2  0
  5  6  1  0
  6  7  1  0
  7  8  2  0
  7  9  1  0
  9 10  2  0
 10 11  1  0
 11 12  2  0
 12 13  1  0
 13 14  1  0
 14 15  1  0
 15 16  2  0
 15 17  1  0
 17 18  1  0
 18 19  2  0
 19 20  1  0
 20 21  2  0
 21 22  1  0
 22 23  1  0
 23 24  1  0
 24 25  2  0
 25 26  1  0
 26 27  2  0
 27 28  1  0
 28 29  2  0
 21 30  1  0
 30 31  2  0
 13 32  2  0
  6 33  2  0
 33 34  1  0
 34 35  1  0
 34 36  2  0
 36 37  1  0
 37 38  2  0
 38 39  1  0
 39  4  1  0
 32  9  1  0
 39 33  1  0
 31 18  1  0
 29 24  1  0
M  END
>  <Compound_ID>  (455) 
CHEMBL4467309

>  <Molecule Name>  (455) 
nan

>  <Molecular Weight>  (455) 
520.59

>  <AlogP>  (455) 
5.89

>  <Smiles>  (455) 
CC(C)c1cc(C(=O)c2cccc(NC(=O)Nc3ccc(OCc4ccccc4)cc3)c2)c2c(N)ncnn12

>  <Standard Type>  (455) 
IC50

>  <Standard Relation>  (455) 
'='

>  <Standard Units>  (455) 
nM

>  <Standard Value>  (455) 
2.0

>  <Assay ChEMBL ID>  (455) 
CHEMBL4349466

>  <Assay Description>  (455) 
Inhibition TRKA (unknown origin)

>  <BAO Format ID>  (455) 
BAO_0000357

>  <BAO Label>  (455) 
single protein format

>  <Assay Organism>  (455) 
Homo sapiens

>  <Target ChEMBL ID>  (455) 
CHEMBL2815

>  <Target Name>  (455) 
Nerve growth factor receptor Trk-A

>  <Target Organism>  (455) 
Homo sapiens

>  <Target Type>  (455) 
SINGLE PROTEIN

>  <Document ChEMBL ID>  (455) 
CHEMBL4346723

>  <Source Description>  (455) 
Scientific Literature

>  <Document Journal>  (455) 
Eur J Med Chem

>  <Document Year>  (455) 
2019.0

>  <Active>  (455) 
1.0

>  <bits>  (455) 
<rdkit.DataStructs.cDataStructs.ExplicitBitVect object at 0x00000159F54731B0>

>  <Group>  (455) 
G2

$$$$

     RDKit          2D

 34 37  0  0  0  0  0  0  0  0999 V2000
   -2.1766   -4.6157    0.0000 C   0  0  0  0  0  0  0  0  0  0  0  0
   -2.6401   -3.1891    0.0000 C   0  0  0  0  0  0  0  0  0  0  0  0
   -3.1036   -1.7626    0.0000 C   0  0  0  0  0  0  0  0  0  0  0  0
   -4.0667   -3.6527    0.0000 C   0  0  0  0  0  0  0  0  0  0  0  0
   -5.1814   -2.6490    0.0000 O   0  0  0  0  0  0  0  0  0  0  0  0
   -1.2135   -2.7256    0.0000 N   0  0  0  0  0  0  0  0  0  0  0  0
   -0.0000   -3.6073    0.0000 C   0  0  0  0  0  0  0  0  0  0  0  0
    1.2135   -2.7256    0.0000 C   0  0  0  0  0  0  0  0  0  0  0  0
    2.6401   -3.1891    0.0000 C   0  0  0  0  0  0  0  0  0  0  0  0
    3.7548   -2.1855    0.0000 O   0  0  0  0  0  0  0  0  0  0  0  0
    2.9520   -4.6564    0.0000 C   0  0  0  0  0  0  0  0  0  0  0  0
    1.8373   -5.6601    0.0000 C   0  0  0  0  0  0  0  0  0  0  0  0
    2.1491   -7.1273    0.0000 N   0  0  0  0  0  0  0  0  0  0  0  0
    3.5757   -7.5908    0.0000 C   0  0  0  0  0  0  0  0  0  0  0  0
    4.6904   -6.5871    0.0000 C   0  0  0  0  0  0  0  0  0  0  0  0
    6.1170   -7.0506    0.0000 N   0  0  0  0  0  0  0  0  0  0  0  0
    6.4289   -8.5179    0.0000 C   0  0  0  0  0  0  0  0  0  0  0  0
    5.3142   -9.5216    0.0000 O   0  0  0  0  0  0  0  0  0  0  0  0
    7.8555   -8.9814    0.0000 C   0  0  0  0  0  0  0  0  0  0  0  0
    8.1673  -10.4486    0.0000 C   0  0  0  0  0  0  0  0  0  0  0  0
    7.0526  -11.4523    0.0000 C   0  0  0  0  0  0  0  0  0  0  0  0
    7.3645  -12.9195    0.0000 C   0  0  0  0  0  0  0  0  0  0  0  0
    8.7911  -13.3831    0.0000 C   0  0  0  0  0  0  0  0  0  0  0  0
    9.1029  -14.8503    0.0000 Cl  0  0  0  0  0  0  0  0  0  0  0  0
    9.9058  -12.3794    0.0000 C   0  0  0  0  0  0  0  0  0  0  0  0
    9.5939  -10.9121    0.0000 C   0  0  0  0  0  0  0  0  0  0  0  0
    4.3786   -5.1199    0.0000 C   0  0  0  0  0  0  0  0  0  0  0  0
    0.7500   -1.2990    0.0000 C   0  0  0  0  0  0  0  0  0  0  0  0
    1.5000    0.0000    0.0000 C   0  0  0  0  0  0  0  0  0  0  0  0
    0.7500    1.2990    0.0000 N   0  0  0  0  0  0  0  0  0  0  0  0
   -0.7500    1.2990    0.0000 C   0  0  0  0  0  0  0  0  0  0  0  0
   -1.5000    0.0000    0.0000 C   0  0  0  0  0  0  0  0  0  0  0  0
   -3.0000    0.0000    0.0000 F   0  0  0  0  0  0  0  0  0  0  0  0
   -0.7500   -1.2990    0.0000 C   0  0  0  0  0  0  0  0  0  0  0  0
  1  2  1  0
  2  3  1  0
  2  4  1  0
  4  5  1  0
  2  6  1  0
  6  7  1  0
  7  8  2  0
  8  9  1  0
  9 10  2  0
  9 11  1  0
 11 12  2  0
 12 13  1  0
 13 14  2  0
 14 15  1  0
 15 16  1  0
 16 17  1  0
 17 18  2  0
 17 19  1  0
 19 20  1  0
 20 21  2  0
 21 22  1  0
 22 23  2  0
 23 24  1  0
 23 25  1  0
 25 26  2  0
 15 27  2  0
  8 28  1  0
 28 29  2  0
 29 30  1  0
 30 31  2  0
 31 32  1  0
 32 33  1  0
 32 34  2  0
 34  6  1  0
 27 11  1  0
 34 28  1  0
 26 20  1  0
M  END
>  <Compound_ID>  (456) 
CHEMBL3921687

>  <Molecule Name>  (456) 
nan

>  <Molecular Weight>  (456) 
480.93

>  <AlogP>  (456) 
4.36

>  <Smiles>  (456) 
CC(C)(CO)n1cc(C(=O)c2cncc(NC(=O)Cc3ccc(Cl)cc3)c2)c2cncc(F)c21

>  <Standard Type>  (456) 
IC50

>  <Standard Relation>  (456) 
'='

>  <Standard Units>  (456) 
nM

>  <Standard Value>  (456) 
6.53

>  <Assay ChEMBL ID>  (456) 
CHEMBL3887111

>  <Assay Description>  (456) 
HTRF Assay: Isolated TRK Enzyme assays use the HTRF KinEASE-TK kit (Cisbio Cat#62TK0PEJ) with recombinant His-tagged cytoplasmic domains of each TRK receptor sourced from Invitrogen (see table below). This activity-assay measures the phosphorylation of tyrosine residues within a substrate from the HTRF kit which has been validated by Cisbio for a variety of tyrosine kinases including the TRK receptors.Assay Details: Invitrogen Amino FAC FAC Assay ReactionTarget Cat# acids enzyme ATP TimeTRKA PV3144 aa 441-4 nM 40 uM 35 min (NTRK1) 796 TRKB PV3616 aa 526-1 nM 1.4 uM 40 min (NTRK2) 838 TRKC PV3617 aa 510- 10 nM 15 uM 30 min (NTRK3) 8250.5 mM stock solutions of test compounds are prepared and serially diluted in 100% DMSO. A standard curve using the compound of Example 135 disclosed in WO2005/116035 of 150 uM is also prepared on each test plate. High percentage effect (HPE) is defined by 150 uM.

>  <BAO Format ID>  (456) 
BAO_0000357

>  <BAO Label>  (456) 
single protein format

>  <Assay Organism>  (456) 
None

>  <Target ChEMBL ID>  (456) 
CHEMBL2815

>  <Target Name>  (456) 
Nerve growth factor receptor Trk-A

>  <Target Organism>  (456) 
Homo sapiens

>  <Target Type>  (456) 
SINGLE PROTEIN

>  <Document ChEMBL ID>  (456) 
CHEMBL3886170

>  <Source Description>  (456) 
BindingDB Database

>  <Document Journal>  (456) 
nan

>  <Document Year>  (456) 
2015.0

>  <Active>  (456) 
1.0

>  <bits>  (456) 
<rdkit.DataStructs.cDataStructs.ExplicitBitVect object at 0x00000159F5471CB0>

>  <Group>  (456) 
G2

$$$$

     RDKit          2D

 34 37  0  0  0  0  0  0  0  0999 V2000
   -2.1766   -4.6157    0.0000 C   0  0  0  0  0  0  0  0  0  0  0  0
   -2.6401   -3.1891    0.0000 C   0  0  0  0  0  0  0  0  0  0  0  0
   -3.1036   -1.7626    0.0000 C   0  0  0  0  0  0  0  0  0  0  0  0
   -4.0667   -3.6527    0.0000 C   0  0  0  0  0  0  0  0  0  0  0  0
   -5.1814   -2.6490    0.0000 O   0  0  0  0  0  0  0  0  0  0  0  0
   -1.2135   -2.7256    0.0000 N   0  0  0  0  0  0  0  0  0  0  0  0
   -0.0000   -3.6073    0.0000 C   0  0  0  0  0  0  0  0  0  0  0  0
    1.2135   -2.7256    0.0000 C   0  0  0  0  0  0  0  0  0  0  0  0
    2.6401   -3.1891    0.0000 C   0  0  0  0  0  0  0  0  0  0  0  0
    3.7548   -2.1855    0.0000 O   0  0  0  0  0  0  0  0  0  0  0  0
    2.9520   -4.6564    0.0000 C   0  0  0  0  0  0  0  0  0  0  0  0
    1.8373   -5.6601    0.0000 C   0  0  0  0  0  0  0  0  0  0  0  0
    2.1491   -7.1273    0.0000 C   0  0  0  0  0  0  0  0  0  0  0  0
    1.0344   -8.1310    0.0000 N   0  0  0  0  0  0  0  0  0  0  0  0
   -0.3922   -7.6675    0.0000 C   0  0  0  0  0  0  0  0  0  0  0  0
   -0.7040   -6.2002    0.0000 O   0  0  0  0  0  0  0  0  0  0  0  0
   -1.5069   -8.6712    0.0000 C   0  0  0  0  0  0  0  0  0  0  0  0
   -2.9335   -8.2076    0.0000 C   0  0  0  0  0  0  0  0  0  0  0  0
   -3.2453   -6.7404    0.0000 C   0  0  0  0  0  0  0  0  0  0  0  0
   -4.6719   -6.2769    0.0000 C   0  0  0  0  0  0  0  0  0  0  0  0
   -5.7866   -7.2806    0.0000 C   0  0  0  0  0  0  0  0  0  0  0  0
   -7.2132   -6.8171    0.0000 C   0  0  0  0  0  0  0  0  0  0  0  0
   -8.6398   -6.3535    0.0000 N   0  0  0  0  0  0  0  0  0  0  0  0
   -5.4748   -8.7478    0.0000 C   0  0  0  0  0  0  0  0  0  0  0  0
   -4.0482   -9.2113    0.0000 C   0  0  0  0  0  0  0  0  0  0  0  0
    3.5757   -7.5908    0.0000 C   0  0  0  0  0  0  0  0  0  0  0  0
    4.6904   -6.5871    0.0000 C   0  0  0  0  0  0  0  0  0  0  0  0
    4.3786   -5.1199    0.0000 N   0  0  0  0  0  0  0  0  0  0  0  0
    0.7500   -1.2990    0.0000 C   0  0  0  0  0  0  0  0  0  0  0  0
    1.5000    0.0000    0.0000 C   0  0  0  0  0  0  0  0  0  0  0  0
    0.7500    1.2990    0.0000 N   0  0  0  0  0  0  0  0  0  0  0  0
   -0.7500    1.2990    0.0000 C   0  0  0  0  0  0  0  0  0  0  0  0
   -1.5000    0.0000    0.0000 C   0  0  0  0  0  0  0  0  0  0  0  0
   -0.7500   -1.2990    0.0000 C   0  0  0  0  0  0  0  0  0  0  0  0
  1  2  1  0
  2  3  1  0
  2  4  1  0
  4  5  1  0
  2  6  1  0
  6  7  1  0
  7  8  2  0
  8  9  1  0
  9 10  2  0
  9 11  1  0
 11 12  2  0
 12 13  1  0
 13 14  1  0
 14 15  1  0
 15 16  2  0
 15 17  1  0
 17 18  1  0
 18 19  2  0
 19 20  1  0
 20 21  2  0
 21 22  1  0
 22 23  3  0
 21 24  1  0
 24 25  2  0
 13 26  2  0
 26 27  1  0
 27 28  2  0
  8 29  1  0
 29 30  2  0
 30 31  1  0
 31 32  2  0
 32 33  1  0
 33 34  2  0
 34  6  1  0
 28 11  1  0
 34 29  1  0
 25 18  1  0
M  END
>  <Compound_ID>  (457) 
CHEMBL3909520

>  <Molecule Name>  (457) 
nan

>  <Molecular Weight>  (457) 
453.5

>  <AlogP>  (457) 
3.44

>  <Smiles>  (457) 
CC(C)(CO)n1cc(C(=O)c2cc(NC(=O)Cc3ccc(C#N)cc3)ccn2)c2cnccc21

>  <Standard Type>  (457) 
IC50

>  <Standard Relation>  (457) 
'='

>  <Standard Units>  (457) 
nM

>  <Standard Value>  (457) 
97.8

>  <Assay ChEMBL ID>  (457) 
CHEMBL3887111

>  <Assay Description>  (457) 
HTRF Assay: Isolated TRK Enzyme assays use the HTRF KinEASE-TK kit (Cisbio Cat#62TK0PEJ) with recombinant His-tagged cytoplasmic domains of each TRK receptor sourced from Invitrogen (see table below). This activity-assay measures the phosphorylation of tyrosine residues within a substrate from the HTRF kit which has been validated by Cisbio for a variety of tyrosine kinases including the TRK receptors.Assay Details: Invitrogen Amino FAC FAC Assay ReactionTarget Cat# acids enzyme ATP TimeTRKA PV3144 aa 441-4 nM 40 uM 35 min (NTRK1) 796 TRKB PV3616 aa 526-1 nM 1.4 uM 40 min (NTRK2) 838 TRKC PV3617 aa 510- 10 nM 15 uM 30 min (NTRK3) 8250.5 mM stock solutions of test compounds are prepared and serially diluted in 100% DMSO. A standard curve using the compound of Example 135 disclosed in WO2005/116035 of 150 uM is also prepared on each test plate. High percentage effect (HPE) is defined by 150 uM.

>  <BAO Format ID>  (457) 
BAO_0000357

>  <BAO Label>  (457) 
single protein format

>  <Assay Organism>  (457) 
None

>  <Target ChEMBL ID>  (457) 
CHEMBL2815

>  <Target Name>  (457) 
Nerve growth factor receptor Trk-A

>  <Target Organism>  (457) 
Homo sapiens

>  <Target Type>  (457) 
SINGLE PROTEIN

>  <Document ChEMBL ID>  (457) 
CHEMBL3886170

>  <Source Description>  (457) 
BindingDB Database

>  <Document Journal>  (457) 
nan

>  <Document Year>  (457) 
2015.0

>  <Active>  (457) 
1.0

>  <bits>  (457) 
<rdkit.DataStructs.cDataStructs.ExplicitBitVect object at 0x00000159F5472F10>

>  <Group>  (457) 
G2

$$$$

     RDKit          2D

 35 38  0  0  0  0  0  0  0  0999 V2000
   -2.1766   -4.6157    0.0000 C   0  0  0  0  0  0  0  0  0  0  0  0
   -2.6401   -3.1891    0.0000 C   0  0  0  0  0  0  0  0  0  0  0  0
   -3.1036   -1.7626    0.0000 C   0  0  0  0  0  0  0  0  0  0  0  0
   -4.0667   -3.6527    0.0000 C   0  0  0  0  0  0  0  0  0  0  0  0
   -5.1814   -2.6490    0.0000 O   0  0  0  0  0  0  0  0  0  0  0  0
   -1.2135   -2.7256    0.0000 N   0  0  0  0  0  0  0  0  0  0  0  0
   -0.0000   -3.6073    0.0000 C   0  0  0  0  0  0  0  0  0  0  0  0
    1.2135   -2.7256    0.0000 C   0  0  0  0  0  0  0  0  0  0  0  0
    2.6401   -3.1891    0.0000 C   0  0  0  0  0  0  0  0  0  0  0  0
    3.7548   -2.1855    0.0000 O   0  0  0  0  0  0  0  0  0  0  0  0
    2.9520   -4.6564    0.0000 C   0  0  0  0  0  0  0  0  0  0  0  0
    1.8373   -5.6601    0.0000 C   0  0  0  0  0  0  0  0  0  0  0  0
    2.1491   -7.1273    0.0000 N   0  0  0  0  0  0  0  0  0  0  0  0
    3.5757   -7.5908    0.0000 C   0  0  0  0  0  0  0  0  0  0  0  0
    4.6904   -6.5871    0.0000 C   0  0  0  0  0  0  0  0  0  0  0  0
    6.1170   -7.0506    0.0000 N   0  0  0  0  0  0  0  0  0  0  0  0
    6.4289   -8.5179    0.0000 C   0  0  0  0  0  0  0  0  0  0  0  0
    5.3142   -9.5216    0.0000 O   0  0  0  0  0  0  0  0  0  0  0  0
    7.8555   -8.9814    0.0000 C   0  0  0  0  0  0  0  0  0  0  0  0
    8.1673  -10.4486    0.0000 C   0  0  0  0  0  0  0  0  0  0  0  0
    7.0526  -11.4523    0.0000 C   0  0  0  0  0  0  0  0  0  0  0  0
    7.3645  -12.9195    0.0000 C   0  0  0  0  0  0  0  0  0  0  0  0
    8.7911  -13.3831    0.0000 C   0  0  0  0  0  0  0  0  0  0  0  0
    9.1029  -14.8503    0.0000 C   0  0  0  0  0  0  0  0  0  0  0  0
    9.4148  -16.3175    0.0000 N   0  0  0  0  0  0  0  0  0  0  0  0
    9.9058  -12.3794    0.0000 C   0  0  0  0  0  0  0  0  0  0  0  0
    9.5939  -10.9121    0.0000 C   0  0  0  0  0  0  0  0  0  0  0  0
    4.3786   -5.1199    0.0000 C   0  0  0  0  0  0  0  0  0  0  0  0
    0.7500   -1.2990    0.0000 C   0  0  0  0  0  0  0  0  0  0  0  0
    1.5000    0.0000    0.0000 C   0  0  0  0  0  0  0  0  0  0  0  0
    0.7500    1.2990    0.0000 N   0  0  0  0  0  0  0  0  0  0  0  0
   -0.7500    1.2990    0.0000 C   0  0  0  0  0  0  0  0  0  0  0  0
   -1.5000    2.5981    0.0000 N   0  0  0  0  0  0  0  0  0  0  0  0
   -1.5000    0.0000    0.0000 N   0  0  0  0  0  0  0  0  0  0  0  0
   -0.7500   -1.2990    0.0000 C   0  0  0  0  0  0  0  0  0  0  0  0
  1  2  1  0
  2  3  1  0
  2  4  1  0
  4  5  1  0
  2  6  1  0
  6  7  1  0
  7  8  2  0
  8  9  1  0
  9 10  2  0
  9 11  1  0
 11 12  2  0
 12 13  1  0
 13 14  2  0
 14 15  1  0
 15 16  1  0
 16 17  1  0
 17 18  2  0
 17 19  1  0
 19 20  1  0
 20 21  2  0
 21 22  1  0
 22 23  2  0
 23 24  1  0
 24 25  3  0
 23 26  1  0
 26 27  2  0
 15 28  2  0
  8 29  1  0
 29 30  2  0
 30 31  1  0
 31 32  2  0
 32 33  1  0
 32 34  1  0
 34 35  2  0
 35  6  1  0
 28 11  1  0
 35 29  1  0
 27 20  1  0
M  END
>  <Compound_ID>  (458) 
CHEMBL3666262

>  <Molecule Name>  (458) 
nan

>  <Molecular Weight>  (458) 
469.51

>  <AlogP>  (458) 
2.42

>  <Smiles>  (458) 
CC(C)(CO)n1cc(C(=O)c2cncc(NC(=O)Cc3ccc(C#N)cc3)c2)c2cnc(N)nc21

>  <Standard Type>  (458) 
IC50

>  <Standard Relation>  (458) 
'='

>  <Standard Units>  (458) 
nM

>  <Standard Value>  (458) 
8.62

>  <Assay ChEMBL ID>  (458) 
CHEMBL3887033

>  <Assay Description>  (458) 
Enzyme Assay: Isolated TRK Enzyme assays use the HTRF KinEASE-TK kit (Cisbio Cat# 62TK0PEJ) with recombinant His-tagged cytoplasmic domains of each TRK receptor sourced from Invitrogen (see table below). This activity-assay measures the phosphorylation of tyrosine residues within a substrate from the HTRF kit which has been validated by Cisbio for a variety of tyrosine kinases including the TRK receptors. Assay details: Target:TRKA; Invitrogen Cat# PV3144; Amino acids:aa 441-796; FAC enzyme:4nM; FAC ATP:40uM; Assay Reaction Time:35min.

>  <BAO Format ID>  (458) 
BAO_0000357

>  <BAO Label>  (458) 
single protein format

>  <Assay Organism>  (458) 
None

>  <Target ChEMBL ID>  (458) 
CHEMBL2815

>  <Target Name>  (458) 
Nerve growth factor receptor Trk-A

>  <Target Organism>  (458) 
Homo sapiens

>  <Target Type>  (458) 
SINGLE PROTEIN

>  <Document ChEMBL ID>  (458) 
CHEMBL3639348

>  <Source Description>  (458) 
BindingDB Database

>  <Document Journal>  (458) 
nan

>  <Document Year>  (458) 
2014.0

>  <Active>  (458) 
1.0

>  <bits>  (458) 
<rdkit.DataStructs.cDataStructs.ExplicitBitVect object at 0x00000159F5472B20>

>  <Group>  (458) 
G2

$$$$

     RDKit          2D

 35 40  0  0  0  0  0  0  0  0999 V2000
   -2.9520   -4.6564    0.0000 C   0  0  0  0  0  0  0  0  0  0  0  0
   -2.6401   -3.1891    0.0000 C   0  0  0  0  0  0  0  0  0  0  0  0
   -3.7548   -2.1855    0.0000 C   0  0  0  0  0  0  0  0  0  0  0  0
   -1.2135   -2.7256    0.0000 N   0  0  0  0  0  0  0  0  0  0  0  0
   -0.0000   -3.6073    0.0000 C   0  0  0  0  0  0  0  0  0  0  0  0
    1.2135   -2.7256    0.0000 C   0  0  0  0  0  0  0  0  0  0  0  0
    2.6401   -3.1891    0.0000 C   0  0  0  0  0  0  0  0  0  0  0  0
    3.7548   -2.1855    0.0000 O   0  0  0  0  0  0  0  0  0  0  0  0
    2.9520   -4.6564    0.0000 C   0  0  0  0  0  0  0  0  0  0  0  0
    1.8373   -5.6601    0.0000 C   0  0  0  0  0  0  0  0  0  0  0  0
    2.1491   -7.1273    0.0000 N   0  0  0  0  0  0  0  0  0  0  0  0
    3.5757   -7.5908    0.0000 C   0  0  0  0  0  0  0  0  0  0  0  0
    4.6904   -6.5871    0.0000 C   0  0  0  0  0  0  0  0  0  0  0  0
    6.1170   -7.0506    0.0000 N   0  0  0  0  0  0  0  0  0  0  0  0
    6.4289   -8.5179    0.0000 C   0  0  0  0  0  0  0  0  0  0  0  0
    5.3142   -9.5216    0.0000 O   0  0  0  0  0  0  0  0  0  0  0  0
    7.8555   -8.9814    0.0000 C   0  0  0  0  0  0  0  0  0  0  0  0
    8.1673  -10.4486    0.0000 C   0  0  0  0  0  0  0  0  0  0  0  0
    9.5377  -11.0587    0.0000 N   0  0  0  0  0  0  0  0  0  0  0  0
    9.3809  -12.5505    0.0000 C   0  0  0  0  0  0  0  0  0  0  0  0
   10.4956  -13.5542    0.0000 C   0  0  0  0  0  0  0  0  0  0  0  0
   11.9628  -13.8661    0.0000 C   0  0  0  0  0  0  0  0  0  0  0  0
   10.9591  -14.9808    0.0000 C   0  0  0  0  0  0  0  0  0  0  0  0
    7.9136  -12.8624    0.0000 O   0  0  0  0  0  0  0  0  0  0  0  0
    7.1636  -11.5633    0.0000 C   0  0  0  0  0  0  0  0  0  0  0  0
    5.6719  -11.4065    0.0000 C   0  0  0  0  0  0  0  0  0  0  0  0
    4.3015  -12.0166    0.0000 C   0  0  0  0  0  0  0  0  0  0  0  0
    4.4583  -10.5249    0.0000 C   0  0  0  0  0  0  0  0  0  0  0  0
    4.3786   -5.1199    0.0000 C   0  0  0  0  0  0  0  0  0  0  0  0
    0.7500   -1.2990    0.0000 C   0  0  0  0  0  0  0  0  0  0  0  0
    1.5000    0.0000    0.0000 C   0  0  0  0  0  0  0  0  0  0  0  0
    0.7500    1.2990    0.0000 N   0  0  0  0  0  0  0  0  0  0  0  0
   -0.7500    1.2990    0.0000 C   0  0  0  0  0  0  0  0  0  0  0  0
   -1.5000    0.0000    0.0000 C   0  0  0  0  0  0  0  0  0  0  0  0
   -0.7500   -1.2990    0.0000 C   0  0  0  0  0  0  0  0  0  0  0  0
  1  2  1  0
  2  3  1  0
  2  4  1  0
  4  5  1  0
  5  6  2  0
  6  7  1  0
  7  8  2  0
  7  9  1  0
  9 10  2  0
 10 11  1  0
 11 12  2  0
 12 13  1  0
 13 14  1  0
 14 15  1  0
 15 16  2  0
 15 17  1  0
 17 18  1  0
 18 19  1  0
 19 20  2  0
 20 21  1  0
 21 22  1  0
 22 23  1  0
 20 24  1  0
 24 25  1  0
 25 26  1  0
 26 27  1  0
 27 28  1  0
 13 29  2  0
  6 30  1  0
 30 31  2  0
 31 32  1  0
 32 33  2  0
 33 34  1  0
 34 35  2  0
 35  4  1  0
 29  9  1  0
 35 30  1  0
 25 18  2  0
 28 26  1  0
 23 21  1  0
M  END
>  <Compound_ID>  (459) 
CHEMBL3974748

>  <Molecule Name>  (459) 
nan

>  <Molecular Weight>  (459) 
469.55

>  <AlogP>  (459) 
5.17

>  <Smiles>  (459) 
CC(C)n1cc(C(=O)c2cncc(NC(=O)Cc3nc(C4CC4)oc3C3CC3)c2)c2cnccc21

>  <Standard Type>  (459) 
IC50

>  <Standard Relation>  (459) 
'='

>  <Standard Units>  (459) 
nM

>  <Standard Value>  (459) 
31.7

>  <Assay ChEMBL ID>  (459) 
CHEMBL3887111

>  <Assay Description>  (459) 
HTRF Assay: Isolated TRK Enzyme assays use the HTRF KinEASE-TK kit (Cisbio Cat#62TK0PEJ) with recombinant His-tagged cytoplasmic domains of each TRK receptor sourced from Invitrogen (see table below). This activity-assay measures the phosphorylation of tyrosine residues within a substrate from the HTRF kit which has been validated by Cisbio for a variety of tyrosine kinases including the TRK receptors.Assay Details: Invitrogen Amino FAC FAC Assay ReactionTarget Cat# acids enzyme ATP TimeTRKA PV3144 aa 441-4 nM 40 uM 35 min (NTRK1) 796 TRKB PV3616 aa 526-1 nM 1.4 uM 40 min (NTRK2) 838 TRKC PV3617 aa 510- 10 nM 15 uM 30 min (NTRK3) 8250.5 mM stock solutions of test compounds are prepared and serially diluted in 100% DMSO. A standard curve using the compound of Example 135 disclosed in WO2005/116035 of 150 uM is also prepared on each test plate. High percentage effect (HPE) is defined by 150 uM.

>  <BAO Format ID>  (459) 
BAO_0000357

>  <BAO Label>  (459) 
single protein format

>  <Assay Organism>  (459) 
None

>  <Target ChEMBL ID>  (459) 
CHEMBL2815

>  <Target Name>  (459) 
Nerve growth factor receptor Trk-A

>  <Target Organism>  (459) 
Homo sapiens

>  <Target Type>  (459) 
SINGLE PROTEIN

>  <Document ChEMBL ID>  (459) 
CHEMBL3886170

>  <Source Description>  (459) 
BindingDB Database

>  <Document Journal>  (459) 
nan

>  <Document Year>  (459) 
2015.0

>  <Active>  (459) 
1.0

>  <bits>  (459) 
<rdkit.DataStructs.cDataStructs.ExplicitBitVect object at 0x00000159F5472730>

>  <Group>  (459) 
G2

$$$$

     RDKit          2D

 30 34  0  0  0  0  0  0  0  0999 V2000
    5.9262   -3.3786    0.0000 C   0  0  0  0  0  0  0  0  0  0  0  0
    5.4627   -1.9520    0.0000 C   0  0  0  0  0  0  0  0  0  0  0  0
    6.4664   -0.8373    0.0000 N   0  0  0  0  0  0  0  0  0  0  0  0
    6.0029    0.5893    0.0000 C   0  0  0  0  0  0  0  0  0  0  0  0
    4.5356    0.9012    0.0000 C   0  0  0  0  0  0  0  0  0  0  0  0
    4.0721    2.3277    0.0000 F   0  0  0  0  0  0  0  0  0  0  0  0
    3.5320   -0.2136    0.0000 C   0  0  0  0  0  0  0  0  0  0  0  0
    3.9955   -1.6402    0.0000 C   0  0  0  0  0  0  0  0  0  0  0  0
    2.9918   -2.7549    0.0000 C   0  0  0  0  0  0  0  0  0  0  0  0
    3.3037   -4.2221    0.0000 C   0  0  0  0  0  0  0  0  0  0  0  0
    2.0046   -4.9721    0.0000 C   0  0  0  0  0  0  0  0  0  0  0  0
    0.8899   -3.9684    0.0000 C   0  0  0  0  0  0  0  0  0  0  0  0
    1.5000   -2.5981    0.0000 N   0  0  0  0  0  0  0  0  0  0  0  0
    0.7500   -1.2990    0.0000 C   0  0  0  0  0  0  0  0  0  0  0  0
    1.5000    0.0000    0.0000 C   0  0  0  0  0  0  0  0  0  0  0  0
    0.7500    1.2990    0.0000 C   0  0  0  0  0  0  0  0  0  0  0  0
   -0.7500    1.2990    0.0000 N   0  0  0  0  0  0  0  0  0  0  0  0
   -1.7537    2.4138    0.0000 N   0  0  0  0  0  0  0  0  0  0  0  0
   -3.1240    1.8037    0.0000 C   0  0  0  0  0  0  0  0  0  0  0  0
   -2.9672    0.3119    0.0000 C   0  0  0  0  0  0  0  0  0  0  0  0
   -4.0819   -0.6918    0.0000 C   0  0  0  0  0  0  0  0  0  0  0  0
   -3.7701   -2.1590    0.0000 O   0  0  0  0  0  0  0  0  0  0  0  0
   -5.5085   -0.2283    0.0000 N   0  0  0  0  0  0  0  0  0  0  0  0
   -6.6232   -1.2320    0.0000 C   0  0  0  0  0  0  0  0  0  0  0  0
   -5.8284   -2.5041    0.0000 C   0  0  0  0  0  0  0  0  0  0  0  0
   -6.5326   -3.8285    0.0000 O   0  0  0  0  0  0  0  0  0  0  0  0
   -8.0140   -1.7939    0.0000 C   0  0  0  0  0  0  0  0  0  0  0  0
   -7.8053   -0.3085    0.0000 C   0  0  0  0  0  0  0  0  0  0  0  0
   -1.5000    0.0000    0.0000 C   0  0  0  0  0  0  0  0  0  0  0  0
   -0.7500   -1.2990    0.0000 N   0  0  0  0  0  0  0  0  0  0  0  0
  1  2  1  0
  2  3  2  0
  3  4  1  0
  4  5  2  0
  5  6  1  0
  5  7  1  0
  7  8  2  0
  8  9  1  0
  9 10  1  0
 10 11  1  0
 11 12  1  0
 12 13  1  0
 13 14  1  0
 14 15  1  0
 15 16  2  0
 16 17  1  0
 17 18  1  0
 18 19  2  0
 19 20  1  0
 20 21  1  0
 21 22  2  0
 21 23  1  0
 23 24  1  0
 24 25  1  0
 25 26  1  0
 24 27  1  0
 27 28  1  0
 20 29  2  0
 29 30  1  0
  8  2  1  0
 13  9  1  0
 30 14  2  0
 29 17  1  0
 28 24  1  0
M  END
>  <Compound_ID>  (460) 
CHEMBL3676061

>  <Molecule Name>  (460) 
nan

>  <Molecular Weight>  (460) 
410.45

>  <AlogP>  (460) 
2.17

>  <Smiles>  (460) 
Cc1ncc(F)cc1C1CCCN1c1ccn2ncc(C(=O)NC3(CO)CC3)c2n1

>  <Standard Type>  (460) 
IC50

>  <Standard Relation>  (460) 
'='

>  <Standard Units>  (460) 
nM

>  <Standard Value>  (460) 
15.6

>  <Assay ChEMBL ID>  (460) 
CHEMBL3887070

>  <Assay Description>  (460) 
ELISA Assay: An enzyme-linked immunosorbant assay (ELISA) was used to assess TrkA kinase activity in the presence of inhibitors. Immulon 4HBX 384-well microtiter plates (Thermo part #8755) were coated with a 0.025 mg/mL solution of poly (Glu, Ala, Tyr; 6:3:1; Sigma P3899). Various concentrations of test compound, 2.5 nM TrkA (Invitrogen Corp., histidine-tagged recombinant human TrkA, cytoplasmic domain), and 500 uM ATP were incubated for 25 minutes at ambient temperature in the coated plates while shaking The assay buffer consisted of 25 mM MOPS pH 7.5, 0.005% (v/v) Triton X-100 and 5 mM MgCl2. The reaction mixture was removed from the plate by washing with PBS containing 0.1% (v/v) Tween 20. The phosphorylated reaction product was detected using 0.2 ug/mL of a phosphotyrosine specific monoclonal antibody (clone PY20) conjugated to horseradish peroxidase in conjunction with the TMB Peroxidase Substrate System (KPL).

>  <BAO Format ID>  (460) 
BAO_0000357

>  <BAO Label>  (460) 
single protein format

>  <Assay Organism>  (460) 
None

>  <Target ChEMBL ID>  (460) 
CHEMBL2815

>  <Target Name>  (460) 
Nerve growth factor receptor Trk-A

>  <Target Organism>  (460) 
Homo sapiens

>  <Target Type>  (460) 
SINGLE PROTEIN

>  <Document ChEMBL ID>  (460) 
CHEMBL3638907

>  <Source Description>  (460) 
BindingDB Database

>  <Document Journal>  (460) 
nan

>  <Document Year>  (460) 
2014.0

>  <Active>  (460) 
1.0

>  <bits>  (460) 
<rdkit.DataStructs.cDataStructs.ExplicitBitVect object at 0x00000159F5471540>

>  <Group>  (460) 
G2

$$$$

     RDKit          2D

 43 47  0  0  0  0  0  0  0  0999 V2000
   -5.1962  -17.1073    0.0000 C   0  0  0  0  0  0  0  0  0  0  0  0
   -6.4952  -16.3573    0.0000 C   0  0  0  0  0  0  0  0  0  0  0  0
   -6.4952  -14.8573    0.0000 N   0  0  0  0  0  0  0  0  0  0  0  0
   -5.1962  -14.1073    0.0000 C   0  0  0  0  0  0  0  0  0  0  0  0
   -5.1962  -12.6073    0.0000 C   0  0  0  0  0  0  0  0  0  0  0  0
   -6.4952  -11.8573    0.0000 N   0  0  0  0  0  0  0  0  0  0  0  0
   -6.4952  -10.3573    0.0000 C   0  0  0  0  0  0  0  0  0  0  0  0
   -5.1962   -9.6073    0.0000 C   0  0  0  0  0  0  0  0  0  0  0  0
   -3.8971  -10.3573    0.0000 C   0  0  0  0  0  0  0  0  0  0  0  0
   -2.5981   -9.6073    0.0000 C   0  0  0  0  0  0  0  0  0  0  0  0
   -2.5981   -8.1073    0.0000 C   0  0  0  0  0  0  0  0  0  0  0  0
   -1.2990   -7.3573    0.0000 N   0  0  0  0  0  0  0  0  0  0  0  0
   -1.2990   -5.8573    0.0000 C   0  0  0  0  0  0  0  0  0  0  0  0
   -2.5981   -5.1073    0.0000 O   0  0  0  0  0  0  0  0  0  0  0  0
   -0.0000   -5.1073    0.0000 N   0  0  0  0  0  0  0  0  0  0  0  0
   -0.0000   -3.6073    0.0000 C   0  0  0  0  0  0  0  0  0  0  0  0
    1.2135   -2.7256    0.0000 N   0  0  0  0  0  0  0  0  0  0  0  0
    0.7500   -1.2990    0.0000 C   0  0  0  0  0  0  0  0  0  0  0  0
    1.5000    0.0000    0.0000 C   0  0  0  0  0  0  0  0  0  0  0  0
    0.7500    1.2990    0.0000 C   0  0  0  0  0  0  0  0  0  0  0  0
   -0.7500    1.2990    0.0000 C   0  0  0  0  0  0  0  0  0  0  0  0
   -1.5000    2.5981    0.0000 O   0  0  0  0  0  0  0  0  0  0  0  0
   -0.7500    3.8971    0.0000 C   0  0  0  0  0  0  0  0  0  0  0  0
    0.7500    3.8971    0.0000 C   0  0  0  0  0  0  0  0  0  0  0  0
    1.5000    5.1962    0.0000 C   0  0  0  0  0  0  0  0  0  0  0  0
    0.7500    6.4952    0.0000 N   0  0  0  0  0  0  0  0  0  0  0  0
   -0.7500    6.4952    0.0000 C   0  0  0  0  0  0  0  0  0  0  0  0
   -1.5000    7.7942    0.0000 C   0  0  0  0  0  0  0  0  0  0  0  0
   -3.0000    7.7942    0.0000 O   0  0  0  0  0  0  0  0  0  0  0  0
   -0.7500    9.0933    0.0000 N   0  0  0  0  0  0  0  0  0  0  0  0
   -1.5000   10.3923    0.0000 C   0  0  0  0  0  0  0  0  0  0  0  0
   -1.5000    5.1962    0.0000 C   0  0  0  0  0  0  0  0  0  0  0  0
   -1.5000    0.0000    0.0000 C   0  0  0  0  0  0  0  0  0  0  0  0
   -0.7500   -1.2990    0.0000 C   0  0  0  0  0  0  0  0  0  0  0  0
   -1.2135   -2.7256    0.0000 S   0  0  0  0  0  0  0  0  0  0  0  0
   -3.8971   -7.3573    0.0000 C   0  0  0  0  0  0  0  0  0  0  0  0
   -5.1962   -8.1073    0.0000 C   0  0  0  0  0  0  0  0  0  0  0  0
   -6.4952   -7.3573    0.0000 C   0  0  0  0  0  0  0  0  0  0  0  0
   -7.7942   -6.6073    0.0000 F   0  0  0  0  0  0  0  0  0  0  0  0
   -5.7452   -6.0583    0.0000 F   0  0  0  0  0  0  0  0  0  0  0  0
   -7.2452   -8.6563    0.0000 F   0  0  0  0  0  0  0  0  0  0  0  0
   -7.7942  -12.6073    0.0000 C   0  0  0  0  0  0  0  0  0  0  0  0
   -7.7942  -14.1073    0.0000 C   0  0  0  0  0  0  0  0  0  0  0  0
  1  2  1  0
  2  3  1  0
  3  4  1  0
  4  5  1  0
  5  6  1  0
  6  7  1  0
  7  8  1  0
  8  9  2  0
  9 10  1  0
 10 11  2  0
 11 12  1  0
 12 13  1  0
 13 14  2  0
 13 15  1  0
 15 16  1  0
 16 17  2  0
 17 18  1  0
 18 19  2  0
 19 20  1  0
 20 21  2  0
 21 22  1  0
 22 23  1  0
 23 24  2  0
 24 25  1  0
 25 26  2  0
 26 27  1  0
 27 28  1  0
 28 29  2  0
 28 30  1  0
 30 31  1  0
 27 32  2  0
 21 33  1  0
 33 34  2  0
 34 35  1  0
 11 36  1  0
 36 37  2  0
 37 38  1  0
 38 39  1  0
 38 40  1  0
 38 41  1  0
  6 42  1  0
 42 43  1  0
 43  3  1  0
 37  8  1  0
 35 16  1  0
 34 18  1  0
 32 23  1  0
M  END
>  <Compound_ID>  (461) 
CHEMBL4589373

>  <Molecule Name>  (461) 
nan

>  <Molecular Weight>  (461) 
613.67

>  <AlogP>  (461) 
5.64

>  <Smiles>  (461) 
CCN1CCN(Cc2ccc(NC(=O)Nc3nc4ccc(Oc5ccnc(C(=O)NC)c5)cc4s3)cc2C(F)(F)F)CC1

>  <Standard Type>  (461) 
IC50

>  <Standard Relation>  (461) 
'='

>  <Standard Units>  (461) 
nM

>  <Standard Value>  (461) 
3.81

>  <Assay ChEMBL ID>  (461) 
CHEMBL4349466

>  <Assay Description>  (461) 
Inhibition TRKA (unknown origin)

>  <BAO Format ID>  (461) 
BAO_0000357

>  <BAO Label>  (461) 
single protein format

>  <Assay Organism>  (461) 
Homo sapiens

>  <Target ChEMBL ID>  (461) 
CHEMBL2815

>  <Target Name>  (461) 
Nerve growth factor receptor Trk-A

>  <Target Organism>  (461) 
Homo sapiens

>  <Target Type>  (461) 
SINGLE PROTEIN

>  <Document ChEMBL ID>  (461) 
CHEMBL4346723

>  <Source Description>  (461) 
Scientific Literature

>  <Document Journal>  (461) 
Eur J Med Chem

>  <Document Year>  (461) 
2019.0

>  <Active>  (461) 
1.0

>  <bits>  (461) 
<rdkit.DataStructs.cDataStructs.ExplicitBitVect object at 0x00000159F5473370>

>  <Group>  (461) 
G2

$$$$

     RDKit          2D

 28 31  0  0  0  0  0  0  0  0999 V2000
   -0.7500   -3.8971    0.0000 C   0  0  0  0  0  0  0  0  0  0  0  0
    0.7500   -3.8971    0.0000 C   0  0  0  0  0  0  0  0  0  0  0  0
    1.5000   -2.5981    0.0000 N   0  0  0  0  0  0  0  0  0  0  0  0
    0.7500   -1.2990    0.0000 C   0  0  0  0  0  0  0  0  0  0  0  0
    1.5000    0.0000    0.0000 C   0  0  0  0  0  0  0  0  0  0  0  0
    0.7500    1.2990    0.0000 C   0  0  0  0  0  0  0  0  0  0  0  0
   -0.7500    1.2990    0.0000 C   0  0  0  0  0  0  0  0  0  0  0  0
   -1.7537    2.4138    0.0000 N   0  0  0  0  0  0  0  0  0  0  0  0
   -3.1240    1.8037    0.0000 N   0  0  0  0  0  0  0  0  0  0  0  0
   -2.9672    0.3119    0.0000 C   0  0  0  0  0  0  0  0  0  0  0  0
   -4.0819   -0.6918    0.0000 C   0  0  0  0  0  0  0  0  0  0  0  0
   -5.5085   -0.2283    0.0000 C   0  0  0  0  0  0  0  0  0  0  0  0
   -6.6232   -1.2320    0.0000 C   0  0  0  0  0  0  0  0  0  0  0  0
   -8.0498   -0.7685    0.0000 C   0  0  0  0  0  0  0  0  0  0  0  0
   -9.1645   -1.7722    0.0000 C   0  0  0  0  0  0  0  0  0  0  0  0
   -8.8527   -3.2394    0.0000 C   0  0  0  0  0  0  0  0  0  0  0  0
   -7.4261   -3.7029    0.0000 C   0  0  0  0  0  0  0  0  0  0  0  0
   -6.3114   -2.6992    0.0000 N   0  0  0  0  0  0  0  0  0  0  0  0
   -1.5000    0.0000    0.0000 C   0  0  0  0  0  0  0  0  0  0  0  0
   -0.7500   -1.2990    0.0000 C   0  0  0  0  0  0  0  0  0  0  0  0
    1.5000   -5.1962    0.0000 C   0  0  0  0  0  0  0  0  0  0  0  0
    0.7500   -6.4952    0.0000 C   0  0  0  0  0  0  0  0  0  0  0  0
    1.5000   -7.7942    0.0000 C   0  0  0  0  0  0  0  0  0  0  0  0
    0.7500   -9.0933    0.0000 F   0  0  0  0  0  0  0  0  0  0  0  0
    3.0000   -7.7942    0.0000 C   0  0  0  0  0  0  0  0  0  0  0  0
    3.7500   -6.4952    0.0000 C   0  0  0  0  0  0  0  0  0  0  0  0
    5.2500   -6.4952    0.0000 F   0  0  0  0  0  0  0  0  0  0  0  0
    3.0000   -5.1962    0.0000 C   0  0  0  0  0  0  0  0  0  0  0  0
  2  1  1  6
  2  3  1  0
  3  4  1  0
  4  5  2  0
  5  6  1  0
  6  7  2  0
  7  8  1  0
  8  9  1  0
  9 10  2  0
 10 11  1  0
 11 12  2  0
 12 13  1  0
 13 14  2  0
 14 15  1  0
 15 16  2  0
 16 17  1  0
 17 18  2  0
 10 19  1  0
 19 20  2  0
  2 21  1  0
 21 22  2  0
 22 23  1  0
 23 24  1  0
 23 25  2  0
 25 26  1  0
 26 27  1  0
 26 28  2  0
 20  4  1  0
 28 21  1  0
 19  7  1  0
 18 13  1  0
M  END
>  <Compound_ID>  (462) 
CHEMBL4780099

>  <Molecule Name>  (462) 
nan

>  <Molecular Weight>  (462) 
376.41

>  <AlogP>  (462) 
5.58

>  <Smiles>  (462) 
C[C@H](Nc1ccc2[nH]nc(/C=C/c3ccccn3)c2c1)c1cc(F)cc(F)c1

>  <Standard Type>  (462) 
IC50

>  <Standard Relation>  (462) 
'='

>  <Standard Units>  (462) 
nM

>  <Standard Value>  (462) 
17.8

>  <Assay ChEMBL ID>  (462) 
CHEMBL4772612

>  <Assay Description>  (462) 
Inhibition of TrkA (unknown origin) using Tyr1 peptide as substrate in presence of ATP measured after 2 hrs by FRET-based Z-Lyte kinase assay

>  <BAO Format ID>  (462) 
BAO_0000357

>  <BAO Label>  (462) 
single protein format

>  <Assay Organism>  (462) 
Homo sapiens

>  <Target ChEMBL ID>  (462) 
CHEMBL2815

>  <Target Name>  (462) 
Nerve growth factor receptor Trk-A

>  <Target Organism>  (462) 
Homo sapiens

>  <Target Type>  (462) 
SINGLE PROTEIN

>  <Document ChEMBL ID>  (462) 
CHEMBL4765391

>  <Source Description>  (462) 
Scientific Literature

>  <Document Journal>  (462) 
Eur J Med Chem

>  <Document Year>  (462) 
2020.0

>  <Active>  (462) 
1.0

>  <bits>  (462) 
<rdkit.DataStructs.cDataStructs.ExplicitBitVect object at 0x00000159F5473220>

>  <Group>  (462) 
G2

$$$$

     RDKit          2D

 31 35  0  0  0  0  0  0  0  0999 V2000
   -3.7548   -2.1855    0.0000 O   0  0  0  0  0  0  0  0  0  0  0  0
   -2.6401   -3.1891    0.0000 C   0  0  0  0  0  0  0  0  0  0  0  0
   -2.9520   -4.6564    0.0000 N   0  0  0  0  0  0  0  0  0  0  0  0
   -4.3786   -5.1199    0.0000 C   0  0  0  0  0  0  0  0  0  0  0  0
   -5.4933   -4.1162    0.0000 C   0  0  0  0  0  0  0  0  0  0  0  0
   -6.9199   -4.5797    0.0000 C   0  0  0  0  0  0  0  0  0  0  0  0
   -7.2317   -6.0469    0.0000 O   0  0  0  0  0  0  0  0  0  0  0  0
   -6.1170   -7.0506    0.0000 C   0  0  0  0  0  0  0  0  0  0  0  0
   -4.6904   -6.5871    0.0000 C   0  0  0  0  0  0  0  0  0  0  0  0
   -1.2135   -2.7256    0.0000 C   0  0  0  0  0  0  0  0  0  0  0  0
   -0.0000   -3.6073    0.0000 C   0  0  0  0  0  0  0  0  0  0  0  0
    1.2135   -2.7256    0.0000 N   0  0  0  0  0  0  0  0  0  0  0  0
    0.7500   -1.2990    0.0000 N   0  0  0  0  0  0  0  0  0  0  0  0
    1.5000    0.0000    0.0000 C   0  0  0  0  0  0  0  0  0  0  0  0
    0.7500    1.2990    0.0000 C   0  0  0  0  0  0  0  0  0  0  0  0
   -0.7500    1.2990    0.0000 C   0  0  0  0  0  0  0  0  0  0  0  0
   -1.5000    2.5981    0.0000 N   0  0  0  0  0  0  0  0  0  0  0  0
   -2.9918    2.7549    0.0000 C   0  0  0  0  0  0  0  0  0  0  0  0
   -3.3037    4.2221    0.0000 C   0  0  0  0  0  0  0  0  0  0  0  0
   -2.0046    4.9721    0.0000 C   0  0  0  0  0  0  0  0  0  0  0  0
   -0.8899    3.9684    0.0000 C   0  0  0  0  0  0  0  0  0  0  0  0
    0.5773    4.2803    0.0000 C   0  0  0  0  0  0  0  0  0  0  0  0
    1.5810    3.1655    0.0000 C   0  0  0  0  0  0  0  0  0  0  0  0
    3.0482    3.4774    0.0000 C   0  0  0  0  0  0  0  0  0  0  0  0
    4.0519    2.3627    0.0000 F   0  0  0  0  0  0  0  0  0  0  0  0
    3.5118    4.9040    0.0000 C   0  0  0  0  0  0  0  0  0  0  0  0
    2.5081    6.0187    0.0000 C   0  0  0  0  0  0  0  0  0  0  0  0
    1.0409    5.7068    0.0000 C   0  0  0  0  0  0  0  0  0  0  0  0
    0.0372    6.8216    0.0000 F   0  0  0  0  0  0  0  0  0  0  0  0
   -1.5000    0.0000    0.0000 N   0  0  0  0  0  0  0  0  0  0  0  0
   -0.7500   -1.2990    0.0000 C   0  0  0  0  0  0  0  0  0  0  0  0
  1  2  2  0
  2  3  1  0
  3  4  1  0
  4  5  1  0
  5  6  1  0
  6  7  1  0
  7  8  1  0
  8  9  1  0
  2 10  1  0
 10 11  1  0
 11 12  2  0
 12 13  1  0
 13 14  1  0
 14 15  2  0
 15 16  1  0
 16 17  1  0
 17 18  1  0
 18 19  1  0
 19 20  1  0
 20 21  1  0
 21 22  1  6
 22 23  2  0
 23 24  1  0
 24 25  1  0
 24 26  2  0
 26 27  1  0
 27 28  2  0
 28 29  1  0
 16 30  2  0
 30 31  1  0
  9  4  1  0
 31 10  2  0
 31 13  1  0
 21 17  1  0
 28 22  1  0
M  END
>  <Compound_ID>  (463) 
CHEMBL3671148

>  <Molecule Name>  (463) 
nan

>  <Molecular Weight>  (463) 
427.46

>  <AlogP>  (463) 
3.26

>  <Smiles>  (463) 
O=C(NC1CCOCC1)c1cnn2ccc(N3CCC[C@@H]3c3cc(F)ccc3F)nc12

>  <Standard Type>  (463) 
IC50

>  <Standard Relation>  (463) 
'='

>  <Standard Units>  (463) 
nM

>  <Standard Value>  (463) 
0.6

>  <Assay ChEMBL ID>  (463) 
CHEMBL3887070

>  <Assay Description>  (463) 
ELISA Assay: An enzyme-linked immunosorbant assay (ELISA) was used to assess TrkA kinase activity in the presence of inhibitors. Immulon 4HBX 384-well microtiter plates (Thermo part #8755) were coated with a 0.025 mg/mL solution of poly (Glu, Ala, Tyr; 6:3:1; Sigma P3899). Various concentrations of test compound, 2.5 nM TrkA (Invitrogen Corp., histidine-tagged recombinant human TrkA, cytoplasmic domain), and 500 uM ATP were incubated for 25 minutes at ambient temperature in the coated plates while shaking The assay buffer consisted of 25 mM MOPS pH 7.5, 0.005% (v/v) Triton X-100 and 5 mM MgCl2. The reaction mixture was removed from the plate by washing with PBS containing 0.1% (v/v) Tween 20. The phosphorylated reaction product was detected using 0.2 ug/mL of a phosphotyrosine specific monoclonal antibody (clone PY20) conjugated to horseradish peroxidase in conjunction with the TMB Peroxidase Substrate System (KPL).

>  <BAO Format ID>  (463) 
BAO_0000357

>  <BAO Label>  (463) 
single protein format

>  <Assay Organism>  (463) 
None

>  <Target ChEMBL ID>  (463) 
CHEMBL2815

>  <Target Name>  (463) 
Nerve growth factor receptor Trk-A

>  <Target Organism>  (463) 
Homo sapiens

>  <Target Type>  (463) 
SINGLE PROTEIN

>  <Document ChEMBL ID>  (463) 
CHEMBL3638907

>  <Source Description>  (463) 
BindingDB Database

>  <Document Journal>  (463) 
nan

>  <Document Year>  (463) 
2014.0

>  <Active>  (463) 
1.0

>  <bits>  (463) 
<rdkit.DataStructs.cDataStructs.ExplicitBitVect object at 0x00000159F54729D0>

>  <Group>  (463) 
G2

$$$$

     RDKit          2D

 32 36  0  0  0  0  0  0  0  0999 V2000
   -2.9520   -4.6564    0.0000 C   0  0  0  0  0  0  0  0  0  0  0  0
   -2.6401   -3.1891    0.0000 C   0  0  0  0  0  0  0  0  0  0  0  0
   -3.7548   -2.1855    0.0000 C   0  0  0  0  0  0  0  0  0  0  0  0
   -1.2135   -2.7256    0.0000 N   0  0  0  0  0  0  0  0  0  0  0  0
   -0.0000   -3.6073    0.0000 C   0  0  0  0  0  0  0  0  0  0  0  0
    1.2135   -2.7256    0.0000 C   0  0  0  0  0  0  0  0  0  0  0  0
    2.6401   -3.1891    0.0000 C   0  0  0  0  0  0  0  0  0  0  0  0
    3.7548   -2.1855    0.0000 O   0  0  0  0  0  0  0  0  0  0  0  0
    2.9520   -4.6564    0.0000 C   0  0  0  0  0  0  0  0  0  0  0  0
    1.8373   -5.6601    0.0000 C   0  0  0  0  0  0  0  0  0  0  0  0
    2.1491   -7.1273    0.0000 N   0  0  0  0  0  0  0  0  0  0  0  0
    3.5757   -7.5908    0.0000 C   0  0  0  0  0  0  0  0  0  0  0  0
    4.6904   -6.5871    0.0000 C   0  0  0  0  0  0  0  0  0  0  0  0
    6.1170   -7.0506    0.0000 N   0  0  0  0  0  0  0  0  0  0  0  0
    6.4289   -8.5179    0.0000 C   0  0  0  0  0  0  0  0  0  0  0  0
    5.3142   -9.5216    0.0000 O   0  0  0  0  0  0  0  0  0  0  0  0
    7.8555   -8.9814    0.0000 C   0  0  0  0  0  0  0  0  0  0  0  0
    9.0690   -8.0997    0.0000 C   0  0  0  0  0  0  0  0  0  0  0  0
   10.2825   -8.9814    0.0000 N   0  0  0  0  0  0  0  0  0  0  0  0
    9.8190  -10.4080    0.0000 N   0  0  0  0  0  0  0  0  0  0  0  0
    8.3190  -10.4080    0.0000 C   0  0  0  0  0  0  0  0  0  0  0  0
    7.4373  -11.6215    0.0000 C   0  0  0  0  0  0  0  0  0  0  0  0
    5.9558  -11.8562    0.0000 C   0  0  0  0  0  0  0  0  0  0  0  0
    6.1904  -13.3377    0.0000 C   0  0  0  0  0  0  0  0  0  0  0  0
    7.6720  -13.1030    0.0000 C   0  0  0  0  0  0  0  0  0  0  0  0
    4.3786   -5.1199    0.0000 C   0  0  0  0  0  0  0  0  0  0  0  0
    0.7500   -1.2990    0.0000 C   0  0  0  0  0  0  0  0  0  0  0  0
    1.5000    0.0000    0.0000 C   0  0  0  0  0  0  0  0  0  0  0  0
    0.7500    1.2990    0.0000 N   0  0  0  0  0  0  0  0  0  0  0  0
   -0.7500    1.2990    0.0000 C   0  0  0  0  0  0  0  0  0  0  0  0
   -1.5000    0.0000    0.0000 N   0  0  0  0  0  0  0  0  0  0  0  0
   -0.7500   -1.2990    0.0000 C   0  0  0  0  0  0  0  0  0  0  0  0
  1  2  1  0
  2  3  1  0
  2  4  1  0
  4  5  1  0
  5  6  2  0
  6  7  1  0
  7  8  2  0
  7  9  1  0
  9 10  2  0
 10 11  1  0
 11 12  2  0
 12 13  1  0
 13 14  1  0
 14 15  1  0
 15 16  2  0
 15 17  1  0
 17 18  2  0
 18 19  1  0
 19 20  1  0
 20 21  2  0
 21 22  1  0
 22 23  1  0
 23 24  1  0
 24 25  1  0
 13 26  2  0
  6 27  1  0
 27 28  2  0
 28 29  1  0
 29 30  2  0
 30 31  1  0
 31 32  2  0
 32  4  1  0
 26  9  1  0
 32 27  1  0
 21 17  1  0
 25 22  1  0
M  END
>  <Compound_ID>  (464) 
CHEMBL3666372

>  <Molecule Name>  (464) 
nan

>  <Molecular Weight>  (464) 
429.48

>  <AlogP>  (464) 
3.88

>  <Smiles>  (464) 
CC(C)n1cc(C(=O)c2cncc(NC(=O)c3c[nH]nc3C3CCC3)c2)c2cncnc21

>  <Standard Type>  (464) 
IC50

>  <Standard Relation>  (464) 
'='

>  <Standard Units>  (464) 
nM

>  <Standard Value>  (464) 
84.3

>  <Assay ChEMBL ID>  (464) 
CHEMBL3887033

>  <Assay Description>  (464) 
Enzyme Assay: Isolated TRK Enzyme assays use the HTRF KinEASE-TK kit (Cisbio Cat# 62TK0PEJ) with recombinant His-tagged cytoplasmic domains of each TRK receptor sourced from Invitrogen (see table below). This activity-assay measures the phosphorylation of tyrosine residues within a substrate from the HTRF kit which has been validated by Cisbio for a variety of tyrosine kinases including the TRK receptors. Assay details: Target:TRKA; Invitrogen Cat# PV3144; Amino acids:aa 441-796; FAC enzyme:4nM; FAC ATP:40uM; Assay Reaction Time:35min.

>  <BAO Format ID>  (464) 
BAO_0000357

>  <BAO Label>  (464) 
single protein format

>  <Assay Organism>  (464) 
None

>  <Target ChEMBL ID>  (464) 
CHEMBL2815

>  <Target Name>  (464) 
Nerve growth factor receptor Trk-A

>  <Target Organism>  (464) 
Homo sapiens

>  <Target Type>  (464) 
SINGLE PROTEIN

>  <Document ChEMBL ID>  (464) 
CHEMBL3639348

>  <Source Description>  (464) 
BindingDB Database

>  <Document Journal>  (464) 
nan

>  <Document Year>  (464) 
2014.0

>  <Active>  (464) 
1.0

>  <bits>  (464) 
<rdkit.DataStructs.cDataStructs.ExplicitBitVect object at 0x00000159F54726C0>

>  <Group>  (464) 
G2

$$$$

     RDKit          2D

 29 32  0  0  0  0  0  0  0  0999 V2000
   -6.1170   -7.0506    0.0000 C   0  0  0  0  0  0  0  0  0  0  0  0
   -4.6904   -6.5871    0.0000 C   0  0  0  0  0  0  0  0  0  0  0  0
   -3.5757   -7.5908    0.0000 O   0  0  0  0  0  0  0  0  0  0  0  0
   -4.3786   -5.1199    0.0000 C   0  0  0  0  0  0  0  0  0  0  0  0
   -2.9520   -4.6564    0.0000 N   0  0  0  0  0  0  0  0  0  0  0  0
   -2.6401   -3.1891    0.0000 C   0  0  0  0  0  0  0  0  0  0  0  0
   -3.7548   -2.1855    0.0000 O   0  0  0  0  0  0  0  0  0  0  0  0
   -1.2135   -2.7256    0.0000 C   0  0  0  0  0  0  0  0  0  0  0  0
   -0.0000   -3.6073    0.0000 C   0  0  0  0  0  0  0  0  0  0  0  0
    1.2135   -2.7256    0.0000 N   0  0  0  0  0  0  0  0  0  0  0  0
    0.7500   -1.2990    0.0000 N   0  0  0  0  0  0  0  0  0  0  0  0
    1.5000    0.0000    0.0000 C   0  0  0  0  0  0  0  0  0  0  0  0
    0.7500    1.2990    0.0000 C   0  0  0  0  0  0  0  0  0  0  0  0
   -0.7500    1.2990    0.0000 C   0  0  0  0  0  0  0  0  0  0  0  0
   -1.5000    2.5981    0.0000 N   0  0  0  0  0  0  0  0  0  0  0  0
   -2.9918    2.7549    0.0000 C   0  0  0  0  0  0  0  0  0  0  0  0
   -3.3037    4.2221    0.0000 C   0  0  0  0  0  0  0  0  0  0  0  0
   -2.0046    4.9721    0.0000 C   0  0  0  0  0  0  0  0  0  0  0  0
   -0.8899    3.9684    0.0000 C   0  0  0  0  0  0  0  0  0  0  0  0
    0.5773    4.2803    0.0000 C   0  0  0  0  0  0  0  0  0  0  0  0
    1.5810    3.1655    0.0000 C   0  0  0  0  0  0  0  0  0  0  0  0
    3.0482    3.4774    0.0000 C   0  0  0  0  0  0  0  0  0  0  0  0
    4.0519    2.3627    0.0000 F   0  0  0  0  0  0  0  0  0  0  0  0
    3.5118    4.9040    0.0000 C   0  0  0  0  0  0  0  0  0  0  0  0
    2.5081    6.0187    0.0000 C   0  0  0  0  0  0  0  0  0  0  0  0
    1.0409    5.7068    0.0000 C   0  0  0  0  0  0  0  0  0  0  0  0
    0.0372    6.8216    0.0000 F   0  0  0  0  0  0  0  0  0  0  0  0
   -1.5000    0.0000    0.0000 N   0  0  0  0  0  0  0  0  0  0  0  0
   -0.7500   -1.2990    0.0000 C   0  0  0  0  0  0  0  0  0  0  0  0
  2  1  1  6
  2  3  1  0
  2  4  1  0
  4  5  1  0
  5  6  1  0
  6  7  2  0
  6  8  1  0
  8  9  1  0
  9 10  2  0
 10 11  1  0
 11 12  1  0
 12 13  2  0
 13 14  1  0
 14 15  1  0
 15 16  1  0
 16 17  1  0
 17 18  1  0
 18 19  1  0
 19 20  1  0
 20 21  2  0
 21 22  1  0
 22 23  1  0
 22 24  2  0
 24 25  1  0
 25 26  2  0
 26 27  1  0
 14 28  2  0
 28 29  1  0
 29  8  2  0
 29 11  1  0
 19 15  1  0
 26 20  1  0
M  END
>  <Compound_ID>  (465) 
CHEMBL3676036

>  <Molecule Name>  (465) 
nan

>  <Molecular Weight>  (465) 
401.42

>  <AlogP>  (465) 
2.46

>  <Smiles>  (465) 
C[C@@H](O)CNC(=O)c1cnn2ccc(N3CCCC3c3cc(F)ccc3F)nc12

>  <Standard Type>  (465) 
IC50

>  <Standard Relation>  (465) 
'='

>  <Standard Units>  (465) 
nM

>  <Standard Value>  (465) 
2.2

>  <Assay ChEMBL ID>  (465) 
CHEMBL3887070

>  <Assay Description>  (465) 
ELISA Assay: An enzyme-linked immunosorbant assay (ELISA) was used to assess TrkA kinase activity in the presence of inhibitors. Immulon 4HBX 384-well microtiter plates (Thermo part #8755) were coated with a 0.025 mg/mL solution of poly (Glu, Ala, Tyr; 6:3:1; Sigma P3899). Various concentrations of test compound, 2.5 nM TrkA (Invitrogen Corp., histidine-tagged recombinant human TrkA, cytoplasmic domain), and 500 uM ATP were incubated for 25 minutes at ambient temperature in the coated plates while shaking The assay buffer consisted of 25 mM MOPS pH 7.5, 0.005% (v/v) Triton X-100 and 5 mM MgCl2. The reaction mixture was removed from the plate by washing with PBS containing 0.1% (v/v) Tween 20. The phosphorylated reaction product was detected using 0.2 ug/mL of a phosphotyrosine specific monoclonal antibody (clone PY20) conjugated to horseradish peroxidase in conjunction with the TMB Peroxidase Substrate System (KPL).

>  <BAO Format ID>  (465) 
BAO_0000357

>  <BAO Label>  (465) 
single protein format

>  <Assay Organism>  (465) 
None

>  <Target ChEMBL ID>  (465) 
CHEMBL2815

>  <Target Name>  (465) 
Nerve growth factor receptor Trk-A

>  <Target Organism>  (465) 
Homo sapiens

>  <Target Type>  (465) 
SINGLE PROTEIN

>  <Document ChEMBL ID>  (465) 
CHEMBL3638907

>  <Source Description>  (465) 
BindingDB Database

>  <Document Journal>  (465) 
nan

>  <Document Year>  (465) 
2014.0

>  <Active>  (465) 
1.0

>  <bits>  (465) 
<rdkit.DataStructs.cDataStructs.ExplicitBitVect object at 0x00000159F5471B60>

>  <Group>  (465) 
G2

$$$$

     RDKit          2D

 37 40  0  0  0  0  0  0  0  0999 V2000
   -6.6080   -3.1125    0.0000 C   0  0  0  0  0  0  0  0  0  0  0  0
   -5.1814   -2.6490    0.0000 O   0  0  0  0  0  0  0  0  0  0  0  0
   -4.0667   -3.6527    0.0000 C   0  0  0  0  0  0  0  0  0  0  0  0
   -2.6401   -3.1891    0.0000 C   0  0  0  0  0  0  0  0  0  0  0  0
   -2.1766   -4.6157    0.0000 C   0  0  0  0  0  0  0  0  0  0  0  0
   -3.1036   -1.7626    0.0000 C   0  0  0  0  0  0  0  0  0  0  0  0
   -1.2135   -2.7256    0.0000 N   0  0  0  0  0  0  0  0  0  0  0  0
   -0.0000   -3.6073    0.0000 C   0  0  0  0  0  0  0  0  0  0  0  0
    1.2135   -2.7256    0.0000 C   0  0  0  0  0  0  0  0  0  0  0  0
    2.6401   -3.1891    0.0000 C   0  0  0  0  0  0  0  0  0  0  0  0
    3.7548   -2.1855    0.0000 O   0  0  0  0  0  0  0  0  0  0  0  0
    2.9520   -4.6564    0.0000 C   0  0  0  0  0  0  0  0  0  0  0  0
    1.8373   -5.6601    0.0000 C   0  0  0  0  0  0  0  0  0  0  0  0
    2.1491   -7.1273    0.0000 N   0  0  0  0  0  0  0  0  0  0  0  0
    3.5757   -7.5908    0.0000 C   0  0  0  0  0  0  0  0  0  0  0  0
    4.6904   -6.5871    0.0000 C   0  0  0  0  0  0  0  0  0  0  0  0
    6.1170   -7.0506    0.0000 N   0  0  0  0  0  0  0  0  0  0  0  0
    6.4289   -8.5179    0.0000 C   0  0  0  0  0  0  0  0  0  0  0  0
    5.3142   -9.5216    0.0000 O   0  0  0  0  0  0  0  0  0  0  0  0
    7.8555   -8.9814    0.0000 C   0  0  0  0  0  0  0  0  0  0  0  0
    8.1673  -10.4486    0.0000 N   0  0  0  0  0  0  0  0  0  0  0  0
    9.5377  -11.0587    0.0000 C   0  0  0  0  0  0  0  0  0  0  0  0
    9.3809  -12.5505    0.0000 C   0  0  0  0  0  0  0  0  0  0  0  0
   10.4956  -13.5542    0.0000 C   0  0  0  0  0  0  0  0  0  0  0  0
   11.6103  -14.5579    0.0000 F   0  0  0  0  0  0  0  0  0  0  0  0
    9.4919  -14.6689    0.0000 F   0  0  0  0  0  0  0  0  0  0  0  0
   11.4993  -12.4395    0.0000 F   0  0  0  0  0  0  0  0  0  0  0  0
    7.9136  -12.8624    0.0000 N   0  0  0  0  0  0  0  0  0  0  0  0
    7.1636  -11.5633    0.0000 N   0  0  0  0  0  0  0  0  0  0  0  0
    4.3786   -5.1199    0.0000 C   0  0  0  0  0  0  0  0  0  0  0  0
    0.7500   -1.2990    0.0000 C   0  0  0  0  0  0  0  0  0  0  0  0
    1.5000    0.0000    0.0000 C   0  0  0  0  0  0  0  0  0  0  0  0
    0.7500    1.2990    0.0000 N   0  0  0  0  0  0  0  0  0  0  0  0
   -0.7500    1.2990    0.0000 C   0  0  0  0  0  0  0  0  0  0  0  0
   -1.5000    2.5981    0.0000 N   0  0  0  0  0  0  0  0  0  0  0  0
   -1.5000    0.0000    0.0000 N   0  0  0  0  0  0  0  0  0  0  0  0
   -0.7500   -1.2990    0.0000 C   0  0  0  0  0  0  0  0  0  0  0  0
  1  2  1  0
  2  3  1  0
  3  4  1  0
  4  5  1  0
  4  6  1  0
  4  7  1  0
  7  8  1  0
  8  9  2  0
  9 10  1  0
 10 11  2  0
 10 12  1  0
 12 13  2  0
 13 14  1  0
 14 15  2  0
 15 16  1  0
 16 17  1  0
 17 18  1  0
 18 19  2  0
 18 20  1  0
 20 21  1  0
 21 22  1  0
 22 23  2  0
 23 24  1  0
 24 25  1  0
 24 26  1  0
 24 27  1  0
 23 28  1  0
 28 29  2  0
 16 30  2  0
  9 31  1  0
 31 32  2  0
 32 33  1  0
 33 34  2  0
 34 35  1  0
 34 36  1  0
 36 37  2  0
 37  7  1  0
 30 12  1  0
 37 31  1  0
 29 21  1  0
M  END
>  <Compound_ID>  (466) 
CHEMBL3671424

>  <Molecule Name>  (466) 
nan

>  <Molecular Weight>  (466) 
517.47

>  <AlogP>  (466) 
2.27

>  <Smiles>  (466) 
COCC(C)(C)n1cc(C(=O)c2cncc(NC(=O)Cn3cc(C(F)(F)F)nn3)c2)c2cnc(N)nc21

>  <Standard Type>  (466) 
IC50

>  <Standard Relation>  (466) 
'='

>  <Standard Units>  (466) 
nM

>  <Standard Value>  (466) 
16.1

>  <Assay ChEMBL ID>  (466) 
CHEMBL3887033

>  <Assay Description>  (466) 
Enzyme Assay: Isolated TRK Enzyme assays use the HTRF KinEASE-TK kit (Cisbio Cat# 62TK0PEJ) with recombinant His-tagged cytoplasmic domains of each TRK receptor sourced from Invitrogen (see table below). This activity-assay measures the phosphorylation of tyrosine residues within a substrate from the HTRF kit which has been validated by Cisbio for a variety of tyrosine kinases including the TRK receptors. Assay details: Target:TRKA; Invitrogen Cat# PV3144; Amino acids:aa 441-796; FAC enzyme:4nM; FAC ATP:40uM; Assay Reaction Time:35min.

>  <BAO Format ID>  (466) 
BAO_0000357

>  <BAO Label>  (466) 
single protein format

>  <Assay Organism>  (466) 
None

>  <Target ChEMBL ID>  (466) 
CHEMBL2815

>  <Target Name>  (466) 
Nerve growth factor receptor Trk-A

>  <Target Organism>  (466) 
Homo sapiens

>  <Target Type>  (466) 
SINGLE PROTEIN

>  <Document ChEMBL ID>  (466) 
CHEMBL3639348

>  <Source Description>  (466) 
BindingDB Database

>  <Document Journal>  (466) 
nan

>  <Document Year>  (466) 
2014.0

>  <Active>  (466) 
1.0

>  <bits>  (466) 
<rdkit.DataStructs.cDataStructs.ExplicitBitVect object at 0x00000159F54713F0>

>  <Group>  (466) 
G2

$$$$

     RDKit          2D

 39 42  0  0  0  0  0  0  0  0999 V2000
  -12.8053   -1.0285    0.0000 C   0  0  0  0  0  0  0  0  0  0  0  0
  -13.1172   -2.4957    0.0000 N   0  0  0  0  0  0  0  0  0  0  0  0
  -12.0025   -3.4994    0.0000 C   0  0  0  0  0  0  0  0  0  0  0  0
  -10.5759   -3.0359    0.0000 C   0  0  0  0  0  0  0  0  0  0  0  0
   -9.4612   -4.0396    0.0000 C   0  0  0  0  0  0  0  0  0  0  0  0
   -9.7730   -5.5068    0.0000 C   0  0  0  0  0  0  0  0  0  0  0  0
   -8.6583   -6.5105    0.0000 C   0  0  0  0  0  0  0  0  0  0  0  0
   -7.2317   -6.0469    0.0000 C   0  0  0  0  0  0  0  0  0  0  0  0
   -6.9199   -4.5797    0.0000 O   0  0  0  0  0  0  0  0  0  0  0  0
   -6.1170   -7.0506    0.0000 N   0  0  0  0  0  0  0  0  0  0  0  0
   -4.6904   -6.5871    0.0000 C   0  0  0  0  0  0  0  0  0  0  0  0
   -3.5757   -7.5908    0.0000 C   0  0  0  0  0  0  0  0  0  0  0  0
   -2.1491   -7.1273    0.0000 N   0  0  0  0  0  0  0  0  0  0  0  0
   -1.8373   -5.6601    0.0000 C   0  0  0  0  0  0  0  0  0  0  0  0
   -2.9520   -4.6564    0.0000 C   0  0  0  0  0  0  0  0  0  0  0  0
   -2.6401   -3.1891    0.0000 C   0  0  0  0  0  0  0  0  0  0  0  0
   -3.7548   -2.1855    0.0000 O   0  0  0  0  0  0  0  0  0  0  0  0
   -1.2135   -2.7256    0.0000 C   0  0  0  0  0  0  0  0  0  0  0  0
   -0.0000   -3.6073    0.0000 C   0  0  0  0  0  0  0  0  0  0  0  0
    1.2135   -2.7256    0.0000 N   0  0  0  0  0  0  0  0  0  0  0  0
    2.6401   -3.1891    0.0000 C   0  0  0  0  0  0  0  0  0  0  0  0
    2.1766   -4.6157    0.0000 C   0  0  0  0  0  0  0  0  0  0  0  0
    3.1036   -1.7626    0.0000 C   0  0  0  0  0  0  0  0  0  0  0  0
    4.0667   -3.6527    0.0000 C   0  0  0  0  0  0  0  0  0  0  0  0
    5.1814   -2.6490    0.0000 O   0  0  0  0  0  0  0  0  0  0  0  0
    0.7500   -1.2990    0.0000 C   0  0  0  0  0  0  0  0  0  0  0  0
    1.5000    0.0000    0.0000 N   0  0  0  0  0  0  0  0  0  0  0  0
    0.7500    1.2990    0.0000 C   0  0  0  0  0  0  0  0  0  0  0  0
    1.5000    2.5981    0.0000 N   0  0  0  0  0  0  0  0  0  0  0  0
   -0.7500    1.2990    0.0000 N   0  0  0  0  0  0  0  0  0  0  0  0
   -1.5000    0.0000    0.0000 C   0  0  0  0  0  0  0  0  0  0  0  0
   -0.7500   -1.2990    0.0000 C   0  0  0  0  0  0  0  0  0  0  0  0
   -4.3786   -5.1199    0.0000 C   0  0  0  0  0  0  0  0  0  0  0  0
  -11.1996   -5.9703    0.0000 C   0  0  0  0  0  0  0  0  0  0  0  0
  -12.3143   -4.9666    0.0000 C   0  0  0  0  0  0  0  0  0  0  0  0
  -14.5438   -2.9592    0.0000 S   0  0  0  0  0  0  0  0  0  0  0  0
  -15.9704   -3.4227    0.0000 C   0  0  0  0  0  0  0  0  0  0  0  0
  -14.0802   -4.3858    0.0000 O   0  0  0  0  0  0  0  0  0  0  0  0
  -15.0073   -1.5326    0.0000 O   0  0  0  0  0  0  0  0  0  0  0  0
  1  2  1  0
  2  3  1  0
  3  4  2  0
  4  5  1  0
  5  6  2  0
  6  7  1  0
  7  8  1  0
  8  9  2  0
  8 10  1  0
 10 11  1  0
 11 12  2  0
 12 13  1  0
 13 14  2  0
 14 15  1  0
 15 16  1  0
 16 17  2  0
 16 18  1  0
 18 19  2  0
 19 20  1  0
 20 21  1  0
 21 22  1  0
 21 23  1  0
 21 24  1  0
 24 25  1  0
 20 26  1  0
 26 27  2  0
 27 28  1  0
 28 29  1  0
 28 30  2  0
 30 31  1  0
 31 32  2  0
 15 33  2  0
  6 34  1  0
 34 35  2  0
  2 36  1  0
 36 37  1  0
 36 38  2  0
 36 39  2  0
 35  3  1  0
 33 11  1  0
 32 18  1  0
 32 26  1  0
M  END
>  <Compound_ID>  (467) 
CHEMBL3671431

>  <Molecule Name>  (467) 
nan

>  <Molecular Weight>  (467) 
551.63

>  <AlogP>  (467) 
1.94

>  <Smiles>  (467) 
CN(c1ccc(CC(=O)Nc2cncc(C(=O)c3cn(C(C)(C)CO)c4nc(N)ncc34)c2)cc1)S(C)(=O)=O

>  <Standard Type>  (467) 
IC50

>  <Standard Relation>  (467) 
'='

>  <Standard Units>  (467) 
nM

>  <Standard Value>  (467) 
9.47

>  <Assay ChEMBL ID>  (467) 
CHEMBL3887033

>  <Assay Description>  (467) 
Enzyme Assay: Isolated TRK Enzyme assays use the HTRF KinEASE-TK kit (Cisbio Cat# 62TK0PEJ) with recombinant His-tagged cytoplasmic domains of each TRK receptor sourced from Invitrogen (see table below). This activity-assay measures the phosphorylation of tyrosine residues within a substrate from the HTRF kit which has been validated by Cisbio for a variety of tyrosine kinases including the TRK receptors. Assay details: Target:TRKA; Invitrogen Cat# PV3144; Amino acids:aa 441-796; FAC enzyme:4nM; FAC ATP:40uM; Assay Reaction Time:35min.

>  <BAO Format ID>  (467) 
BAO_0000357

>  <BAO Label>  (467) 
single protein format

>  <Assay Organism>  (467) 
None

>  <Target ChEMBL ID>  (467) 
CHEMBL2815

>  <Target Name>  (467) 
Nerve growth factor receptor Trk-A

>  <Target Organism>  (467) 
Homo sapiens

>  <Target Type>  (467) 
SINGLE PROTEIN

>  <Document ChEMBL ID>  (467) 
CHEMBL3639348

>  <Source Description>  (467) 
BindingDB Database

>  <Document Journal>  (467) 
nan

>  <Document Year>  (467) 
2014.0

>  <Active>  (467) 
1.0

>  <bits>  (467) 
<rdkit.DataStructs.cDataStructs.ExplicitBitVect object at 0x00000159F5473D80>

>  <Group>  (467) 
G2

$$$$

     RDKit          2D

 27 30  0  0  0  0  0  0  0  0999 V2000
   -4.6904   -6.5871    0.0000 C   0  0  0  0  0  0  0  0  0  0  0  0
   -4.3786   -5.1199    0.0000 O   0  0  0  0  0  0  0  0  0  0  0  0
   -2.9520   -4.6564    0.0000 N   0  0  0  0  0  0  0  0  0  0  0  0
   -2.6401   -3.1891    0.0000 C   0  0  0  0  0  0  0  0  0  0  0  0
   -3.7548   -2.1855    0.0000 O   0  0  0  0  0  0  0  0  0  0  0  0
   -1.2135   -2.7256    0.0000 C   0  0  0  0  0  0  0  0  0  0  0  0
   -0.0000   -3.6073    0.0000 C   0  0  0  0  0  0  0  0  0  0  0  0
    1.2135   -2.7256    0.0000 N   0  0  0  0  0  0  0  0  0  0  0  0
    0.7500   -1.2990    0.0000 N   0  0  0  0  0  0  0  0  0  0  0  0
    1.5000    0.0000    0.0000 C   0  0  0  0  0  0  0  0  0  0  0  0
    0.7500    1.2990    0.0000 C   0  0  0  0  0  0  0  0  0  0  0  0
   -0.7500    1.2990    0.0000 C   0  0  0  0  0  0  0  0  0  0  0  0
   -1.5000    2.5981    0.0000 N   0  0  0  0  0  0  0  0  0  0  0  0
   -2.9918    2.7549    0.0000 C   0  0  0  0  0  0  0  0  0  0  0  0
   -3.3037    4.2221    0.0000 C   0  0  0  0  0  0  0  0  0  0  0  0
   -2.0046    4.9721    0.0000 C   0  0  0  0  0  0  0  0  0  0  0  0
   -0.8899    3.9684    0.0000 C   0  0  0  0  0  0  0  0  0  0  0  0
    0.5773    4.2803    0.0000 C   0  0  0  0  0  0  0  0  0  0  0  0
    1.5810    3.1655    0.0000 C   0  0  0  0  0  0  0  0  0  0  0  0
    3.0482    3.4774    0.0000 C   0  0  0  0  0  0  0  0  0  0  0  0
    4.0519    2.3627    0.0000 F   0  0  0  0  0  0  0  0  0  0  0  0
    3.5118    4.9040    0.0000 C   0  0  0  0  0  0  0  0  0  0  0  0
    2.5081    6.0187    0.0000 C   0  0  0  0  0  0  0  0  0  0  0  0
    1.0409    5.7068    0.0000 C   0  0  0  0  0  0  0  0  0  0  0  0
    0.0372    6.8216    0.0000 F   0  0  0  0  0  0  0  0  0  0  0  0
   -1.5000    0.0000    0.0000 N   0  0  0  0  0  0  0  0  0  0  0  0
   -0.7500   -1.2990    0.0000 C   0  0  0  0  0  0  0  0  0  0  0  0
  1  2  1  0
  2  3  1  0
  3  4  1  0
  4  5  2  0
  4  6  1  0
  6  7  1  0
  7  8  2  0
  8  9  1  0
  9 10  1  0
 10 11  2  0
 11 12  1  0
 12 13  1  0
 13 14  1  0
 14 15  1  0
 15 16  1  0
 16 17  1  0
 17 18  1  6
 18 19  2  0
 19 20  1  0
 20 21  1  0
 20 22  2  0
 22 23  1  0
 23 24  2  0
 24 25  1  0
 12 26  2  0
 26 27  1  0
 27  6  2  0
 27  9  1  0
 17 13  1  0
 24 18  1  0
M  END
>  <Compound_ID>  (468) 
CHEMBL3675941

>  <Molecule Name>  (468) 
nan

>  <Molecular Weight>  (468) 
373.36

>  <AlogP>  (468) 
2.64

>  <Smiles>  (468) 
CONC(=O)c1cnn2ccc(N3CCC[C@@H]3c3cc(F)ccc3F)nc12

>  <Standard Type>  (468) 
IC50

>  <Standard Relation>  (468) 
'='

>  <Standard Units>  (468) 
nM

>  <Standard Value>  (468) 
0.6

>  <Assay ChEMBL ID>  (468) 
CHEMBL3887070

>  <Assay Description>  (468) 
ELISA Assay: An enzyme-linked immunosorbant assay (ELISA) was used to assess TrkA kinase activity in the presence of inhibitors. Immulon 4HBX 384-well microtiter plates (Thermo part #8755) were coated with a 0.025 mg/mL solution of poly (Glu, Ala, Tyr; 6:3:1; Sigma P3899). Various concentrations of test compound, 2.5 nM TrkA (Invitrogen Corp., histidine-tagged recombinant human TrkA, cytoplasmic domain), and 500 uM ATP were incubated for 25 minutes at ambient temperature in the coated plates while shaking The assay buffer consisted of 25 mM MOPS pH 7.5, 0.005% (v/v) Triton X-100 and 5 mM MgCl2. The reaction mixture was removed from the plate by washing with PBS containing 0.1% (v/v) Tween 20. The phosphorylated reaction product was detected using 0.2 ug/mL of a phosphotyrosine specific monoclonal antibody (clone PY20) conjugated to horseradish peroxidase in conjunction with the TMB Peroxidase Substrate System (KPL).

>  <BAO Format ID>  (468) 
BAO_0000357

>  <BAO Label>  (468) 
single protein format

>  <Assay Organism>  (468) 
None

>  <Target ChEMBL ID>  (468) 
CHEMBL2815

>  <Target Name>  (468) 
Nerve growth factor receptor Trk-A

>  <Target Organism>  (468) 
Homo sapiens

>  <Target Type>  (468) 
SINGLE PROTEIN

>  <Document ChEMBL ID>  (468) 
CHEMBL3638907

>  <Source Description>  (468) 
BindingDB Database

>  <Document Journal>  (468) 
nan

>  <Document Year>  (468) 
2014.0

>  <Active>  (468) 
1.0

>  <bits>  (468) 
<rdkit.DataStructs.cDataStructs.ExplicitBitVect object at 0x00000159F5473AE0>

>  <Group>  (468) 
G2

$$$$

     RDKit          2D

 31 35  0  0  0  0  0  0  0  0999 V2000
   -3.7548   -2.1855    0.0000 O   0  0  0  0  0  0  0  0  0  0  0  0
   -2.6401   -3.1891    0.0000 C   0  0  0  0  0  0  0  0  0  0  0  0
   -2.9520   -4.6564    0.0000 N   0  0  0  0  0  0  0  0  0  0  0  0
   -4.3786   -5.1199    0.0000 C   0  0  0  0  0  0  0  0  0  0  0  0
   -5.4933   -4.1162    0.0000 C   0  0  0  0  0  0  0  0  0  0  0  0
   -6.9199   -4.5797    0.0000 C   0  0  0  0  0  0  0  0  0  0  0  0
   -7.2317   -6.0469    0.0000 C   0  0  0  0  0  0  0  0  0  0  0  0
   -6.1170   -7.0506    0.0000 C   0  0  0  0  0  0  0  0  0  0  0  0
   -4.6904   -6.5871    0.0000 N   0  0  0  0  0  0  0  0  0  0  0  0
   -1.2135   -2.7256    0.0000 C   0  0  0  0  0  0  0  0  0  0  0  0
   -0.0000   -3.6073    0.0000 C   0  0  0  0  0  0  0  0  0  0  0  0
    1.2135   -2.7256    0.0000 N   0  0  0  0  0  0  0  0  0  0  0  0
    0.7500   -1.2990    0.0000 N   0  0  0  0  0  0  0  0  0  0  0  0
    1.5000    0.0000    0.0000 C   0  0  0  0  0  0  0  0  0  0  0  0
    0.7500    1.2990    0.0000 C   0  0  0  0  0  0  0  0  0  0  0  0
   -0.7500    1.2990    0.0000 C   0  0  0  0  0  0  0  0  0  0  0  0
   -1.5000    2.5981    0.0000 N   0  0  0  0  0  0  0  0  0  0  0  0
   -2.9918    2.7549    0.0000 C   0  0  0  0  0  0  0  0  0  0  0  0
   -3.3037    4.2221    0.0000 C   0  0  0  0  0  0  0  0  0  0  0  0
   -2.0046    4.9721    0.0000 C   0  0  0  0  0  0  0  0  0  0  0  0
   -0.8899    3.9684    0.0000 C   0  0  0  0  0  0  0  0  0  0  0  0
    0.5773    4.2803    0.0000 C   0  0  0  0  0  0  0  0  0  0  0  0
    1.5810    3.1655    0.0000 C   0  0  0  0  0  0  0  0  0  0  0  0
    3.0482    3.4774    0.0000 C   0  0  0  0  0  0  0  0  0  0  0  0
    4.0519    2.3627    0.0000 F   0  0  0  0  0  0  0  0  0  0  0  0
    3.5118    4.9040    0.0000 C   0  0  0  0  0  0  0  0  0  0  0  0
    2.5081    6.0187    0.0000 C   0  0  0  0  0  0  0  0  0  0  0  0
    1.0409    5.7068    0.0000 C   0  0  0  0  0  0  0  0  0  0  0  0
    0.0372    6.8216    0.0000 F   0  0  0  0  0  0  0  0  0  0  0  0
   -1.5000    0.0000    0.0000 N   0  0  0  0  0  0  0  0  0  0  0  0
   -0.7500   -1.2990    0.0000 C   0  0  0  0  0  0  0  0  0  0  0  0
  1  2  2  0
  2  3  1  0
  3  4  1  0
  4  5  2  0
  5  6  1  0
  6  7  2  0
  7  8  1  0
  8  9  2  0
  2 10  1  0
 10 11  1  0
 11 12  2  0
 12 13  1  0
 13 14  1  0
 14 15  2  0
 15 16  1  0
 16 17  1  0
 17 18  1  0
 18 19  1  0
 19 20  1  0
 20 21  1  0
 21 22  1  6
 22 23  2  0
 23 24  1  0
 24 25  1  0
 24 26  2  0
 26 27  1  0
 27 28  2  0
 28 29  1  0
 16 30  2  0
 30 31  1  0
  9  4  1  0
 31 10  2  0
 31 13  1  0
 21 17  1  0
 28 22  1  0
M  END
>  <Compound_ID>  (469) 
CHEMBL3671130

>  <Molecule Name>  (469) 
nan

>  <Molecular Weight>  (469) 
420.42

>  <AlogP>  (469) 
4.0

>  <Smiles>  (469) 
O=C(Nc1ccccn1)c1cnn2ccc(N3CCC[C@@H]3c3cc(F)ccc3F)nc12

>  <Standard Type>  (469) 
IC50

>  <Standard Relation>  (469) 
'='

>  <Standard Units>  (469) 
nM

>  <Standard Value>  (469) 
0.7

>  <Assay ChEMBL ID>  (469) 
CHEMBL3887070

>  <Assay Description>  (469) 
ELISA Assay: An enzyme-linked immunosorbant assay (ELISA) was used to assess TrkA kinase activity in the presence of inhibitors. Immulon 4HBX 384-well microtiter plates (Thermo part #8755) were coated with a 0.025 mg/mL solution of poly (Glu, Ala, Tyr; 6:3:1; Sigma P3899). Various concentrations of test compound, 2.5 nM TrkA (Invitrogen Corp., histidine-tagged recombinant human TrkA, cytoplasmic domain), and 500 uM ATP were incubated for 25 minutes at ambient temperature in the coated plates while shaking The assay buffer consisted of 25 mM MOPS pH 7.5, 0.005% (v/v) Triton X-100 and 5 mM MgCl2. The reaction mixture was removed from the plate by washing with PBS containing 0.1% (v/v) Tween 20. The phosphorylated reaction product was detected using 0.2 ug/mL of a phosphotyrosine specific monoclonal antibody (clone PY20) conjugated to horseradish peroxidase in conjunction with the TMB Peroxidase Substrate System (KPL).

>  <BAO Format ID>  (469) 
BAO_0000357

>  <BAO Label>  (469) 
single protein format

>  <Assay Organism>  (469) 
None

>  <Target ChEMBL ID>  (469) 
CHEMBL2815

>  <Target Name>  (469) 
Nerve growth factor receptor Trk-A

>  <Target Organism>  (469) 
Homo sapiens

>  <Target Type>  (469) 
SINGLE PROTEIN

>  <Document ChEMBL ID>  (469) 
CHEMBL3638907

>  <Source Description>  (469) 
BindingDB Database

>  <Document Journal>  (469) 
nan

>  <Document Year>  (469) 
2014.0

>  <Active>  (469) 
1.0

>  <bits>  (469) 
<rdkit.DataStructs.cDataStructs.ExplicitBitVect object at 0x00000159F5473680>

>  <Group>  (469) 
G2

$$$$

     RDKit          2D

 32 35  0  0  0  0  0  0  0  0999 V2000
   -4.6904   -6.5871    0.0000 C   0  0  0  0  0  0  0  0  0  0  0  0
   -4.3786   -5.1199    0.0000 C   0  0  0  0  0  0  0  0  0  0  0  0
   -2.9520   -4.6564    0.0000 N   0  0  0  0  0  0  0  0  0  0  0  0
   -2.6401   -3.1891    0.0000 C   0  0  0  0  0  0  0  0  0  0  0  0
   -3.7548   -2.1855    0.0000 O   0  0  0  0  0  0  0  0  0  0  0  0
   -1.2135   -2.7256    0.0000 C   0  0  0  0  0  0  0  0  0  0  0  0
   -0.0000   -3.6073    0.0000 C   0  0  0  0  0  0  0  0  0  0  0  0
    1.2135   -2.7256    0.0000 N   0  0  0  0  0  0  0  0  0  0  0  0
    0.7500   -1.2990    0.0000 N   0  0  0  0  0  0  0  0  0  0  0  0
    1.5000    0.0000    0.0000 C   0  0  0  0  0  0  0  0  0  0  0  0
    0.7500    1.2990    0.0000 C   0  0  0  0  0  0  0  0  0  0  0  0
   -0.7500    1.2990    0.0000 C   0  0  0  0  0  0  0  0  0  0  0  0
   -1.5000    2.5981    0.0000 N   0  0  0  0  0  0  0  0  0  0  0  0
   -2.9918    2.7549    0.0000 C   0  0  0  0  0  0  0  0  0  0  0  0
   -3.9955    1.6402    0.0000 C   0  0  0  0  0  0  0  0  0  0  0  0
   -5.4627    1.9520    0.0000 O   0  0  0  0  0  0  0  0  0  0  0  0
   -3.3037    4.2221    0.0000 C   0  0  0  0  0  0  0  0  0  0  0  0
   -2.0046    4.9721    0.0000 C   0  0  0  0  0  0  0  0  0  0  0  0
   -0.8899    3.9684    0.0000 C   0  0  0  0  0  0  0  0  0  0  0  0
    0.5773    4.2803    0.0000 C   0  0  0  0  0  0  0  0  0  0  0  0
    1.5810    3.1655    0.0000 C   0  0  0  0  0  0  0  0  0  0  0  0
    3.0482    3.4774    0.0000 N   0  0  0  0  0  0  0  0  0  0  0  0
    3.5118    4.9040    0.0000 C   0  0  0  0  0  0  0  0  0  0  0  0
    2.5081    6.0187    0.0000 C   0  0  0  0  0  0  0  0  0  0  0  0
    2.9716    7.4453    0.0000 F   0  0  0  0  0  0  0  0  0  0  0  0
    1.0409    5.7068    0.0000 C   0  0  0  0  0  0  0  0  0  0  0  0
   -1.5000    0.0000    0.0000 N   0  0  0  0  0  0  0  0  0  0  0  0
   -0.7500   -1.2990    0.0000 C   0  0  0  0  0  0  0  0  0  0  0  0
   -5.4933   -4.1162    0.0000 C   0  0  0  0  0  0  0  0  0  0  0  0
   -6.6080   -3.1125    0.0000 F   0  0  0  0  0  0  0  0  0  0  0  0
   -6.4970   -5.2309    0.0000 F   0  0  0  0  0  0  0  0  0  0  0  0
   -4.4896   -3.0015    0.0000 F   0  0  0  0  0  0  0  0  0  0  0  0
  1  2  1  0
  2  3  1  0
  3  4  1  0
  4  5  2  0
  4  6  1  0
  6  7  1  0
  7  8  2  0
  8  9  1  0
  9 10  1  0
 10 11  2  0
 11 12  1  0
 12 13  1  0
 13 14  1  0
 14 15  1  0
 15 16  1  0
 14 17  1  0
 17 18  1  0
 18 19  1  0
 19 20  1  0
 20 21  2  0
 21 22  1  0
 22 23  2  0
 23 24  1  0
 24 25  1  0
 24 26  2  0
 12 27  2  0
 27 28  1  0
  2 29  1  0
 29 30  1  0
 29 31  1  0
 29 32  1  0
 28  6  2  0
 28  9  1  0
 19 13  1  0
 26 20  1  0
M  END
>  <Compound_ID>  (470) 
CHEMBL3676078

>  <Molecule Name>  (470) 
nan

>  <Molecular Weight>  (470) 
452.41

>  <AlogP>  (470) 
2.65

>  <Smiles>  (470) 
CC(NC(=O)c1cnn2ccc(N3C(CO)CCC3c3cncc(F)c3)nc12)C(F)(F)F

>  <Standard Type>  (470) 
IC50

>  <Standard Relation>  (470) 
'='

>  <Standard Units>  (470) 
nM

>  <Standard Value>  (470) 
6.8

>  <Assay ChEMBL ID>  (470) 
CHEMBL3887070

>  <Assay Description>  (470) 
ELISA Assay: An enzyme-linked immunosorbant assay (ELISA) was used to assess TrkA kinase activity in the presence of inhibitors. Immulon 4HBX 384-well microtiter plates (Thermo part #8755) were coated with a 0.025 mg/mL solution of poly (Glu, Ala, Tyr; 6:3:1; Sigma P3899). Various concentrations of test compound, 2.5 nM TrkA (Invitrogen Corp., histidine-tagged recombinant human TrkA, cytoplasmic domain), and 500 uM ATP were incubated for 25 minutes at ambient temperature in the coated plates while shaking The assay buffer consisted of 25 mM MOPS pH 7.5, 0.005% (v/v) Triton X-100 and 5 mM MgCl2. The reaction mixture was removed from the plate by washing with PBS containing 0.1% (v/v) Tween 20. The phosphorylated reaction product was detected using 0.2 ug/mL of a phosphotyrosine specific monoclonal antibody (clone PY20) conjugated to horseradish peroxidase in conjunction with the TMB Peroxidase Substrate System (KPL).

>  <BAO Format ID>  (470) 
BAO_0000357

>  <BAO Label>  (470) 
single protein format

>  <Assay Organism>  (470) 
None

>  <Target ChEMBL ID>  (470) 
CHEMBL2815

>  <Target Name>  (470) 
Nerve growth factor receptor Trk-A

>  <Target Organism>  (470) 
Homo sapiens

>  <Target Type>  (470) 
SINGLE PROTEIN

>  <Document ChEMBL ID>  (470) 
CHEMBL3638907

>  <Source Description>  (470) 
BindingDB Database

>  <Document Journal>  (470) 
nan

>  <Document Year>  (470) 
2014.0

>  <Active>  (470) 
1.0

>  <bits>  (470) 
<rdkit.DataStructs.cDataStructs.ExplicitBitVect object at 0x00000159F5472FF0>

>  <Group>  (470) 
G2

$$$$

     RDKit          2D

 34 38  0  0  0  0  0  0  0  0999 V2000
   -3.7548   -2.1855    0.0000 O   0  0  0  0  0  0  0  0  0  0  0  0
   -2.6401   -3.1891    0.0000 C   0  0  0  0  0  0  0  0  0  0  0  0
   -2.9520   -4.6564    0.0000 N   0  0  0  0  0  0  0  0  0  0  0  0
   -4.3786   -5.1199    0.0000 C   0  0  0  0  0  0  0  0  0  0  0  0
   -5.4933   -4.1162    0.0000 C   0  0  0  0  0  0  0  0  0  0  0  0
   -6.9199   -4.5797    0.0000 C   0  0  0  0  0  0  0  0  0  0  0  0
   -7.2317   -6.0469    0.0000 C   0  0  0  0  0  0  0  0  0  0  0  0
   -8.6583   -6.5105    0.0000 C   0  0  0  0  0  0  0  0  0  0  0  0
   -8.9702   -7.9777    0.0000 O   0  0  0  0  0  0  0  0  0  0  0  0
   -9.7730   -5.5068    0.0000 O   0  0  0  0  0  0  0  0  0  0  0  0
   -6.1170   -7.0506    0.0000 C   0  0  0  0  0  0  0  0  0  0  0  0
   -4.6904   -6.5871    0.0000 C   0  0  0  0  0  0  0  0  0  0  0  0
   -1.2135   -2.7256    0.0000 C   0  0  0  0  0  0  0  0  0  0  0  0
   -0.0000   -3.6073    0.0000 C   0  0  0  0  0  0  0  0  0  0  0  0
    1.2135   -2.7256    0.0000 N   0  0  0  0  0  0  0  0  0  0  0  0
    0.7500   -1.2990    0.0000 N   0  0  0  0  0  0  0  0  0  0  0  0
    1.5000    0.0000    0.0000 C   0  0  0  0  0  0  0  0  0  0  0  0
    0.7500    1.2990    0.0000 C   0  0  0  0  0  0  0  0  0  0  0  0
   -0.7500    1.2990    0.0000 C   0  0  0  0  0  0  0  0  0  0  0  0
   -1.5000    2.5981    0.0000 N   0  0  0  0  0  0  0  0  0  0  0  0
   -2.9918    2.7549    0.0000 C   0  0  0  0  0  0  0  0  0  0  0  0
   -3.3037    4.2221    0.0000 C   0  0  0  0  0  0  0  0  0  0  0  0
   -2.0046    4.9721    0.0000 C   0  0  0  0  0  0  0  0  0  0  0  0
   -0.8899    3.9684    0.0000 C   0  0  0  0  0  0  0  0  0  0  0  0
    0.5773    4.2803    0.0000 C   0  0  0  0  0  0  0  0  0  0  0  0
    1.5810    3.1655    0.0000 C   0  0  0  0  0  0  0  0  0  0  0  0
    3.0482    3.4774    0.0000 C   0  0  0  0  0  0  0  0  0  0  0  0
    4.0519    2.3627    0.0000 F   0  0  0  0  0  0  0  0  0  0  0  0
    3.5118    4.9040    0.0000 C   0  0  0  0  0  0  0  0  0  0  0  0
    2.5081    6.0187    0.0000 C   0  0  0  0  0  0  0  0  0  0  0  0
    1.0409    5.7068    0.0000 C   0  0  0  0  0  0  0  0  0  0  0  0
    0.0372    6.8216    0.0000 F   0  0  0  0  0  0  0  0  0  0  0  0
   -1.5000    0.0000    0.0000 N   0  0  0  0  0  0  0  0  0  0  0  0
   -0.7500   -1.2990    0.0000 C   0  0  0  0  0  0  0  0  0  0  0  0
  1  2  2  0
  2  3  1  0
  3  4  1  0
  4  5  1  0
  5  6  1  0
  6  7  1  0
  7  8  1  0
  8  9  2  0
  8 10  1  0
  7 11  1  0
 11 12  1  0
  2 13  1  0
 13 14  1  0
 14 15  2  0
 15 16  1  0
 16 17  1  0
 17 18  2  0
 18 19  1  0
 19 20  1  0
 20 21  1  0
 21 22  1  0
 22 23  1  0
 23 24  1  0
 24 25  1  0
 25 26  2  0
 26 27  1  0
 27 28  1  0
 27 29  2  0
 29 30  1  0
 30 31  2  0
 31 32  1  0
 19 33  2  0
 33 34  1  0
 12  4  1  0
 34 13  2  0
 34 16  1  0
 24 20  1  0
 31 25  1  0
M  END
>  <Compound_ID>  (471) 
CHEMBL3675911

>  <Molecule Name>  (471) 
nan

>  <Molecular Weight>  (471) 
469.49

>  <AlogP>  (471) 
3.72

>  <Smiles>  (471) 
O=C(NC1CCC(C(=O)O)CC1)c1cnn2ccc(N3CCCC3c3cc(F)ccc3F)nc12

>  <Standard Type>  (471) 
IC50

>  <Standard Relation>  (471) 
'='

>  <Standard Units>  (471) 
nM

>  <Standard Value>  (471) 
1.5

>  <Assay ChEMBL ID>  (471) 
CHEMBL3887070

>  <Assay Description>  (471) 
ELISA Assay: An enzyme-linked immunosorbant assay (ELISA) was used to assess TrkA kinase activity in the presence of inhibitors. Immulon 4HBX 384-well microtiter plates (Thermo part #8755) were coated with a 0.025 mg/mL solution of poly (Glu, Ala, Tyr; 6:3:1; Sigma P3899). Various concentrations of test compound, 2.5 nM TrkA (Invitrogen Corp., histidine-tagged recombinant human TrkA, cytoplasmic domain), and 500 uM ATP were incubated for 25 minutes at ambient temperature in the coated plates while shaking The assay buffer consisted of 25 mM MOPS pH 7.5, 0.005% (v/v) Triton X-100 and 5 mM MgCl2. The reaction mixture was removed from the plate by washing with PBS containing 0.1% (v/v) Tween 20. The phosphorylated reaction product was detected using 0.2 ug/mL of a phosphotyrosine specific monoclonal antibody (clone PY20) conjugated to horseradish peroxidase in conjunction with the TMB Peroxidase Substrate System (KPL).

>  <BAO Format ID>  (471) 
BAO_0000357

>  <BAO Label>  (471) 
single protein format

>  <Assay Organism>  (471) 
None

>  <Target ChEMBL ID>  (471) 
CHEMBL2815

>  <Target Name>  (471) 
Nerve growth factor receptor Trk-A

>  <Target Organism>  (471) 
Homo sapiens

>  <Target Type>  (471) 
SINGLE PROTEIN

>  <Document ChEMBL ID>  (471) 
CHEMBL3638907

>  <Source Description>  (471) 
BindingDB Database

>  <Document Journal>  (471) 
nan

>  <Document Year>  (471) 
2014.0

>  <Active>  (471) 
1.0

>  <bits>  (471) 
<rdkit.DataStructs.cDataStructs.ExplicitBitVect object at 0x00000159F5472810>

>  <Group>  (471) 
G2

$$$$

     RDKit          2D

 29 33  0  0  0  0  0  0  0  0999 V2000
   -3.7548   -2.1855    0.0000 O   0  0  0  0  0  0  0  0  0  0  0  0
   -2.6401   -3.1891    0.0000 C   0  0  0  0  0  0  0  0  0  0  0  0
   -2.9520   -4.6564    0.0000 N   0  0  0  0  0  0  0  0  0  0  0  0
   -4.3786   -5.1199    0.0000 C   0  0  0  0  0  0  0  0  0  0  0  0
   -5.3823   -6.2346    0.0000 C   0  0  0  0  0  0  0  0  0  0  0  0
   -5.8458   -4.8080    0.0000 C   0  0  0  0  0  0  0  0  0  0  0  0
   -1.2135   -2.7256    0.0000 C   0  0  0  0  0  0  0  0  0  0  0  0
   -0.0000   -3.6073    0.0000 C   0  0  0  0  0  0  0  0  0  0  0  0
    1.2135   -2.7256    0.0000 N   0  0  0  0  0  0  0  0  0  0  0  0
    0.7500   -1.2990    0.0000 N   0  0  0  0  0  0  0  0  0  0  0  0
    1.5000    0.0000    0.0000 C   0  0  0  0  0  0  0  0  0  0  0  0
    0.7500    1.2990    0.0000 C   0  0  0  0  0  0  0  0  0  0  0  0
   -0.7500    1.2990    0.0000 C   0  0  0  0  0  0  0  0  0  0  0  0
   -1.5000    2.5981    0.0000 N   0  0  0  0  0  0  0  0  0  0  0  0
   -2.9918    2.7549    0.0000 C   0  0  0  0  0  0  0  0  0  0  0  0
   -3.3037    4.2221    0.0000 C   0  0  0  0  0  0  0  0  0  0  0  0
   -2.0046    4.9721    0.0000 C   0  0  0  0  0  0  0  0  0  0  0  0
   -0.8899    3.9684    0.0000 C   0  0  0  0  0  0  0  0  0  0  0  0
    0.5773    4.2803    0.0000 C   0  0  0  0  0  0  0  0  0  0  0  0
    1.5810    3.1655    0.0000 C   0  0  0  0  0  0  0  0  0  0  0  0
    3.0482    3.4774    0.0000 C   0  0  0  0  0  0  0  0  0  0  0  0
    4.0519    2.3627    0.0000 F   0  0  0  0  0  0  0  0  0  0  0  0
    3.5118    4.9040    0.0000 C   0  0  0  0  0  0  0  0  0  0  0  0
    2.5081    6.0187    0.0000 N   0  0  0  0  0  0  0  0  0  0  0  0
    1.0409    5.7068    0.0000 C   0  0  0  0  0  0  0  0  0  0  0  0
    0.0372    6.8216    0.0000 C   0  0  0  0  0  0  0  0  0  0  0  0
    0.5007    8.2481    0.0000 O   0  0  0  0  0  0  0  0  0  0  0  0
   -1.5000    0.0000    0.0000 N   0  0  0  0  0  0  0  0  0  0  0  0
   -0.7500   -1.2990    0.0000 C   0  0  0  0  0  0  0  0  0  0  0  0
  1  2  2  0
  2  3  1  0
  3  4  1  0
  4  5  1  0
  5  6  1  0
  2  7  1  0
  7  8  1  0
  8  9  2  0
  9 10  1  0
 10 11  1  0
 11 12  2  0
 12 13  1  0
 13 14  1  0
 14 15  1  0
 15 16  1  0
 16 17  1  0
 17 18  1  0
 18 19  1  0
 19 20  2  0
 20 21  1  0
 21 22  1  0
 21 23  2  0
 23 24  1  0
 24 25  2  0
 25 26  1  0
 26 27  1  0
 13 28  2  0
 28 29  1  0
  6  4  1  0
 29  7  2  0
 29 10  1  0
 18 14  1  0
 25 19  1  0
M  END
>  <Compound_ID>  (472) 
CHEMBL3675954

>  <Molecule Name>  (472) 
nan

>  <Molecular Weight>  (472) 
396.43

>  <AlogP>  (472) 
1.99

>  <Smiles>  (472) 
O=C(NC1CC1)c1cnn2ccc(N3CCCC3c3cc(F)cnc3CO)nc12

>  <Standard Type>  (472) 
IC50

>  <Standard Relation>  (472) 
'='

>  <Standard Units>  (472) 
nM

>  <Standard Value>  (472) 
1.3

>  <Assay ChEMBL ID>  (472) 
CHEMBL3887070

>  <Assay Description>  (472) 
ELISA Assay: An enzyme-linked immunosorbant assay (ELISA) was used to assess TrkA kinase activity in the presence of inhibitors. Immulon 4HBX 384-well microtiter plates (Thermo part #8755) were coated with a 0.025 mg/mL solution of poly (Glu, Ala, Tyr; 6:3:1; Sigma P3899). Various concentrations of test compound, 2.5 nM TrkA (Invitrogen Corp., histidine-tagged recombinant human TrkA, cytoplasmic domain), and 500 uM ATP were incubated for 25 minutes at ambient temperature in the coated plates while shaking The assay buffer consisted of 25 mM MOPS pH 7.5, 0.005% (v/v) Triton X-100 and 5 mM MgCl2. The reaction mixture was removed from the plate by washing with PBS containing 0.1% (v/v) Tween 20. The phosphorylated reaction product was detected using 0.2 ug/mL of a phosphotyrosine specific monoclonal antibody (clone PY20) conjugated to horseradish peroxidase in conjunction with the TMB Peroxidase Substrate System (KPL).

>  <BAO Format ID>  (472) 
BAO_0000357

>  <BAO Label>  (472) 
single protein format

>  <Assay Organism>  (472) 
None

>  <Target ChEMBL ID>  (472) 
CHEMBL2815

>  <Target Name>  (472) 
Nerve growth factor receptor Trk-A

>  <Target Organism>  (472) 
Homo sapiens

>  <Target Type>  (472) 
SINGLE PROTEIN

>  <Document ChEMBL ID>  (472) 
CHEMBL3638907

>  <Source Description>  (472) 
BindingDB Database

>  <Document Journal>  (472) 
nan

>  <Document Year>  (472) 
2014.0

>  <Active>  (472) 
1.0

>  <bits>  (472) 
<rdkit.DataStructs.cDataStructs.ExplicitBitVect object at 0x00000159F54723B0>

>  <Group>  (472) 
G2

$$$$

     RDKit          2D

 35 42  0  0  0  0  0  0  0  0999 V2000
    7.9532   -3.2017    0.0000 C   0  0  0  0  0  0  0  0  0  0  0  0
    6.4699   -2.9781    0.0000 O   0  0  0  0  0  0  0  0  0  0  0  0
    5.5347   -4.1509    0.0000 C   0  0  0  0  0  0  0  0  0  0  0  0
    6.0827   -5.5472    0.0000 O   0  0  0  0  0  0  0  0  0  0  0  0
    4.0514   -3.9273    0.0000 C   0  0  0  0  0  0  0  0  0  0  0  0
    4.4288   -2.4756    0.0000 O   0  0  0  0  0  0  0  0  0  0  0  0
    3.9841   -5.4258    0.0000 C   0  0  0  0  0  0  0  0  0  0  0  0
    2.5382   -5.8249    0.0000 C   0  0  0  0  0  0  0  0  0  0  0  0
    3.2490   -4.5040    0.0000 O   0  0  0  0  0  0  0  0  0  0  0  0
    2.6595   -3.1247    0.0000 C   0  0  0  0  0  0  0  0  0  0  0  0
    3.6464   -1.9951    0.0000 C   0  0  0  0  0  0  0  0  0  0  0  0
    1.2135   -2.7256    0.0000 N   0  0  0  0  0  0  0  0  0  0  0  0
    0.7500   -1.2990    0.0000 C   0  0  0  0  0  0  0  0  0  0  0  0
    1.5000    0.0000    0.0000 C   0  0  0  0  0  0  0  0  0  0  0  0
    0.7500    1.2990    0.0000 C   0  0  0  0  0  0  0  0  0  0  0  0
   -0.7500    1.2990    0.0000 C   0  0  0  0  0  0  0  0  0  0  0  0
   -1.5000    0.0000    0.0000 C   0  0  0  0  0  0  0  0  0  0  0  0
   -0.7500   -1.2990    0.0000 C   0  0  0  0  0  0  0  0  0  0  0  0
   -1.2135   -2.7256    0.0000 C   0  0  0  0  0  0  0  0  0  0  0  0
   -2.5518   -3.5691    0.0000 C   0  0  0  0  0  0  0  0  0  0  0  0
   -2.6191   -5.0676    0.0000 C   0  0  0  0  0  0  0  0  0  0  0  0
   -1.3550   -5.8751    0.0000 C   0  0  0  0  0  0  0  0  0  0  0  0
   -1.0212   -7.3375    0.0000 C   0  0  0  0  0  0  0  0  0  0  0  0
   -1.8846   -8.5641    0.0000 C   0  0  0  0  0  0  0  0  0  0  0  0
   -1.2541   -9.9251    0.0000 C   0  0  0  0  0  0  0  0  0  0  0  0
    0.2399  -10.0596    0.0000 C   0  0  0  0  0  0  0  0  0  0  0  0
    1.1033   -8.8330    0.0000 C   0  0  0  0  0  0  0  0  0  0  0  0
    0.4728   -7.4720    0.0000 C   0  0  0  0  0  0  0  0  0  0  0  0
    1.0623   -6.0927    0.0000 N   0  0  0  0  0  0  0  0  0  0  0  0
   -0.0673   -5.1058    0.0000 C   0  0  0  0  0  0  0  0  0  0  0  0
   -0.0000   -3.6073    0.0000 C   0  0  0  0  0  0  0  0  0  0  0  0
   -4.0650   -5.4667    0.0000 C   0  0  0  0  0  0  0  0  0  0  0  0
   -4.5921   -6.8710    0.0000 O   0  0  0  0  0  0  0  0  0  0  0  0
   -4.8913   -4.2148    0.0000 N   0  0  0  0  0  0  0  0  0  0  0  0
   -3.9561   -3.0421    0.0000 C   0  0  0  0  0  0  0  0  0  0  0  0
  1  2  1  0
  2  3  1  0
  3  4  2  0
  3  5  1  0
  5  6  1  1
  5  7  1  0
  8  7  1  1
  8  9  1  0
  9 10  1  0
 10 11  1  6
 10 12  1  0
 12 13  1  0
 13 14  2  0
 14 15  1  0
 15 16  2  0
 16 17  1  0
 17 18  2  0
 18 19  1  0
 19 20  2  0
 20 21  1  0
 21 22  2  0
 22 23  1  0
 23 24  2  0
 24 25  1  0
 25 26  2  0
 26 27  1  0
 27 28  2  0
 28 29  1  0
 29 30  1  0
 30 31  2  0
 21 32  1  0
 32 33  2  0
 32 34  1  0
 34 35  1  0
 10  5  1  0
 31 12  1  0
 29  8  1  0
 18 13  1  0
 31 19  1  0
 35 20  1  0
 30 22  1  0
 28 23  1  0
M  END
>  <Compound_ID>  (473) 
CHEMBL416056

>  <Molecule Name>  (473) 
nan

>  <Molecular Weight>  (473) 
467.48

>  <AlogP>  (473) 
3.66

>  <Smiles>  (473) 
COC(=O)[C@]1(O)C[C@@H]2O[C@@]1(C)n1c3ccccc3c3c4c(c5c6ccccc6n2c5c31)C(=O)NC4

>  <Standard Type>  (473) 
IC50

>  <Standard Relation>  (473) 
'='

>  <Standard Units>  (473) 
nM

>  <Standard Value>  (473) 
13.0

>  <Assay ChEMBL ID>  (473) 
CHEMBL911983

>  <Assay Description>  (473) 
Inhibition of TrkA

>  <BAO Format ID>  (473) 
BAO_0000357

>  <BAO Label>  (473) 
single protein format

>  <Assay Organism>  (473) 
Homo sapiens

>  <Target ChEMBL ID>  (473) 
CHEMBL2815

>  <Target Name>  (473) 
Nerve growth factor receptor Trk-A

>  <Target Organism>  (473) 
Homo sapiens

>  <Target Type>  (473) 
SINGLE PROTEIN

>  <Document ChEMBL ID>  (473) 
CHEMBL1141396

>  <Source Description>  (473) 
Scientific Literature

>  <Document Journal>  (473) 
J Med Chem

>  <Document Year>  (473) 
2007.0

>  <Active>  (473) 
1.0

>  <bits>  (473) 
<rdkit.DataStructs.cDataStructs.ExplicitBitVect object at 0x00000159F5471770>

>  <Group>  (473) 
G2

$$$$

     RDKit          2D

 34 38  0  0  0  0  0  0  0  0999 V2000
    7.3934   -3.6905    0.0000 C   0  0  0  0  0  0  0  0  0  0  0  0
    5.9262   -3.3786    0.0000 O   0  0  0  0  0  0  0  0  0  0  0  0
    5.4627   -1.9520    0.0000 C   0  0  0  0  0  0  0  0  0  0  0  0
    6.4664   -0.8373    0.0000 N   0  0  0  0  0  0  0  0  0  0  0  0
    6.0029    0.5893    0.0000 C   0  0  0  0  0  0  0  0  0  0  0  0
    4.5356    0.9012    0.0000 C   0  0  0  0  0  0  0  0  0  0  0  0
    4.0721    2.3277    0.0000 F   0  0  0  0  0  0  0  0  0  0  0  0
    3.5320   -0.2136    0.0000 C   0  0  0  0  0  0  0  0  0  0  0  0
    3.9955   -1.6402    0.0000 C   0  0  0  0  0  0  0  0  0  0  0  0
    2.9918   -2.7549    0.0000 C   0  0  0  0  0  0  0  0  0  0  0  0
    3.3037   -4.2221    0.0000 C   0  0  0  0  0  0  0  0  0  0  0  0
    2.0046   -4.9721    0.0000 C   0  0  0  0  0  0  0  0  0  0  0  0
    0.8899   -3.9684    0.0000 C   0  0  0  0  0  0  0  0  0  0  0  0
    1.5000   -2.5981    0.0000 N   0  0  0  0  0  0  0  0  0  0  0  0
    0.7500   -1.2990    0.0000 C   0  0  0  0  0  0  0  0  0  0  0  0
    1.5000    0.0000    0.0000 C   0  0  0  0  0  0  0  0  0  0  0  0
    0.7500    1.2990    0.0000 C   0  0  0  0  0  0  0  0  0  0  0  0
   -0.7500    1.2990    0.0000 N   0  0  0  0  0  0  0  0  0  0  0  0
   -1.7537    2.4138    0.0000 N   0  0  0  0  0  0  0  0  0  0  0  0
   -3.1240    1.8037    0.0000 C   0  0  0  0  0  0  0  0  0  0  0  0
   -2.9672    0.3119    0.0000 C   0  0  0  0  0  0  0  0  0  0  0  0
   -4.0819   -0.6918    0.0000 C   0  0  0  0  0  0  0  0  0  0  0  0
   -3.7701   -2.1590    0.0000 O   0  0  0  0  0  0  0  0  0  0  0  0
   -5.5085   -0.2283    0.0000 N   0  0  0  0  0  0  0  0  0  0  0  0
   -6.6232   -1.2320    0.0000 C   0  0  0  0  0  0  0  0  0  0  0  0
   -6.4664   -2.7238    0.0000 C   0  0  0  0  0  0  0  0  0  0  0  0
   -7.8368   -3.3339    0.0000 C   0  0  0  0  0  0  0  0  0  0  0  0
   -8.8405   -2.2192    0.0000 N   0  0  0  0  0  0  0  0  0  0  0  0
  -10.3322   -2.3760    0.0000 C   0  0  0  0  0  0  0  0  0  0  0  0
  -11.2139   -1.1624    0.0000 C   0  0  0  0  0  0  0  0  0  0  0  0
  -10.9423   -3.7463    0.0000 C   0  0  0  0  0  0  0  0  0  0  0  0
   -8.0905   -0.9201    0.0000 N   0  0  0  0  0  0  0  0  0  0  0  0
   -1.5000    0.0000    0.0000 C   0  0  0  0  0  0  0  0  0  0  0  0
   -0.7500   -1.2990    0.0000 N   0  0  0  0  0  0  0  0  0  0  0  0
  1  2  1  0
  2  3  1  0
  3  4  2  0
  4  5  1  0
  5  6  2  0
  6  7  1  0
  6  8  1  0
  8  9  2  0
 10  9  1  1
 10 11  1  0
 11 12  1  0
 12 13  1  0
 13 14  1  0
 14 15  1  0
 15 16  1  0
 16 17  2  0
 17 18  1  0
 18 19  1  0
 19 20  2  0
 20 21  1  0
 21 22  1  0
 22 23  2  0
 22 24  1  0
 24 25  1  0
 25 26  1  0
 26 27  2  0
 27 28  1  0
 28 29  1  0
 29 30  1  0
 29 31  1  0
 28 32  1  0
 21 33  2  0
 33 34  1  0
  9  3  1  0
 14 10  1  0
 34 15  2  0
 33 18  1  0
 32 25  2  0
M  END
>  <Compound_ID>  (474) 
CHEMBL3676106

>  <Molecule Name>  (474) 
nan

>  <Molecular Weight>  (474) 
464.51

>  <AlogP>  (474) 
3.64

>  <Smiles>  (474) 
COc1ncc(F)cc1[C@H]1CCCN1c1ccn2ncc(C(=O)Nc3ccn(C(C)C)n3)c2n1

>  <Standard Type>  (474) 
IC50

>  <Standard Relation>  (474) 
'='

>  <Standard Units>  (474) 
nM

>  <Standard Value>  (474) 
38.2

>  <Assay ChEMBL ID>  (474) 
CHEMBL3887070

>  <Assay Description>  (474) 
ELISA Assay: An enzyme-linked immunosorbant assay (ELISA) was used to assess TrkA kinase activity in the presence of inhibitors. Immulon 4HBX 384-well microtiter plates (Thermo part #8755) were coated with a 0.025 mg/mL solution of poly (Glu, Ala, Tyr; 6:3:1; Sigma P3899). Various concentrations of test compound, 2.5 nM TrkA (Invitrogen Corp., histidine-tagged recombinant human TrkA, cytoplasmic domain), and 500 uM ATP were incubated for 25 minutes at ambient temperature in the coated plates while shaking The assay buffer consisted of 25 mM MOPS pH 7.5, 0.005% (v/v) Triton X-100 and 5 mM MgCl2. The reaction mixture was removed from the plate by washing with PBS containing 0.1% (v/v) Tween 20. The phosphorylated reaction product was detected using 0.2 ug/mL of a phosphotyrosine specific monoclonal antibody (clone PY20) conjugated to horseradish peroxidase in conjunction with the TMB Peroxidase Substrate System (KPL).

>  <BAO Format ID>  (474) 
BAO_0000357

>  <BAO Label>  (474) 
single protein format

>  <Assay Organism>  (474) 
None

>  <Target ChEMBL ID>  (474) 
CHEMBL2815

>  <Target Name>  (474) 
Nerve growth factor receptor Trk-A

>  <Target Organism>  (474) 
Homo sapiens

>  <Target Type>  (474) 
SINGLE PROTEIN

>  <Document ChEMBL ID>  (474) 
CHEMBL3638907

>  <Source Description>  (474) 
BindingDB Database

>  <Document Journal>  (474) 
nan

>  <Document Year>  (474) 
2014.0

>  <Active>  (474) 
1.0

>  <bits>  (474) 
<rdkit.DataStructs.cDataStructs.ExplicitBitVect object at 0x00000159F54712A0>

>  <Group>  (474) 
G2

$$$$

     RDKit          2D

 29 32  0  0  0  0  0  0  0  0999 V2000
   -4.6904   -6.5871    0.0000 C   0  0  0  0  0  0  0  0  0  0  0  0
   -4.3786   -5.1199    0.0000 C   0  0  0  0  0  0  0  0  0  0  0  0
   -5.4933   -4.1162    0.0000 C   0  0  0  0  0  0  0  0  0  0  0  0
   -6.9199   -4.5797    0.0000 O   0  0  0  0  0  0  0  0  0  0  0  0
   -2.9520   -4.6564    0.0000 N   0  0  0  0  0  0  0  0  0  0  0  0
   -2.6401   -3.1891    0.0000 C   0  0  0  0  0  0  0  0  0  0  0  0
   -3.7548   -2.1855    0.0000 O   0  0  0  0  0  0  0  0  0  0  0  0
   -1.2135   -2.7256    0.0000 C   0  0  0  0  0  0  0  0  0  0  0  0
   -0.0000   -3.6073    0.0000 C   0  0  0  0  0  0  0  0  0  0  0  0
    1.2135   -2.7256    0.0000 N   0  0  0  0  0  0  0  0  0  0  0  0
    0.7500   -1.2990    0.0000 N   0  0  0  0  0  0  0  0  0  0  0  0
    1.5000    0.0000    0.0000 C   0  0  0  0  0  0  0  0  0  0  0  0
    0.7500    1.2990    0.0000 C   0  0  0  0  0  0  0  0  0  0  0  0
   -0.7500    1.2990    0.0000 C   0  0  0  0  0  0  0  0  0  0  0  0
   -1.5000    2.5981    0.0000 N   0  0  0  0  0  0  0  0  0  0  0  0
   -2.9918    2.7549    0.0000 C   0  0  0  0  0  0  0  0  0  0  0  0
   -3.3037    4.2221    0.0000 C   0  0  0  0  0  0  0  0  0  0  0  0
   -2.0046    4.9721    0.0000 C   0  0  0  0  0  0  0  0  0  0  0  0
   -0.8899    3.9684    0.0000 C   0  0  0  0  0  0  0  0  0  0  0  0
    0.5773    4.2803    0.0000 C   0  0  0  0  0  0  0  0  0  0  0  0
    1.5810    3.1655    0.0000 C   0  0  0  0  0  0  0  0  0  0  0  0
    3.0482    3.4774    0.0000 C   0  0  0  0  0  0  0  0  0  0  0  0
    4.0519    2.3627    0.0000 F   0  0  0  0  0  0  0  0  0  0  0  0
    3.5118    4.9040    0.0000 C   0  0  0  0  0  0  0  0  0  0  0  0
    2.5081    6.0187    0.0000 C   0  0  0  0  0  0  0  0  0  0  0  0
    1.0409    5.7068    0.0000 C   0  0  0  0  0  0  0  0  0  0  0  0
    0.0372    6.8216    0.0000 F   0  0  0  0  0  0  0  0  0  0  0  0
   -1.5000    0.0000    0.0000 N   0  0  0  0  0  0  0  0  0  0  0  0
   -0.7500   -1.2990    0.0000 C   0  0  0  0  0  0  0  0  0  0  0  0
  2  1  1  1
  2  3  1  0
  3  4  1  0
  2  5  1  0
  5  6  1  0
  6  7  2  0
  6  8  1  0
  8  9  1  0
  9 10  2  0
 10 11  1  0
 11 12  1  0
 12 13  2  0
 13 14  1  0
 14 15  1  0
 15 16  1  0
 16 17  1  0
 17 18  1  0
 18 19  1  0
 19 20  1  6
 20 21  2  0
 21 22  1  0
 22 23  1  0
 22 24  2  0
 24 25  1  0
 25 26  2  0
 26 27  1  0
 14 28  2  0
 28 29  1  0
 29  8  2  0
 29 11  1  0
 19 15  1  0
 26 20  1  0
M  END
>  <Compound_ID>  (475) 
CHEMBL3676045

>  <Molecule Name>  (475) 
nan

>  <Molecular Weight>  (475) 
401.42

>  <AlogP>  (475) 
2.46

>  <Smiles>  (475) 
C[C@@H](CO)NC(=O)c1cnn2ccc(N3CCC[C@@H]3c3cc(F)ccc3F)nc12

>  <Standard Type>  (475) 
IC50

>  <Standard Relation>  (475) 
'='

>  <Standard Units>  (475) 
nM

>  <Standard Value>  (475) 
1.8

>  <Assay ChEMBL ID>  (475) 
CHEMBL3887070

>  <Assay Description>  (475) 
ELISA Assay: An enzyme-linked immunosorbant assay (ELISA) was used to assess TrkA kinase activity in the presence of inhibitors. Immulon 4HBX 384-well microtiter plates (Thermo part #8755) were coated with a 0.025 mg/mL solution of poly (Glu, Ala, Tyr; 6:3:1; Sigma P3899). Various concentrations of test compound, 2.5 nM TrkA (Invitrogen Corp., histidine-tagged recombinant human TrkA, cytoplasmic domain), and 500 uM ATP were incubated for 25 minutes at ambient temperature in the coated plates while shaking The assay buffer consisted of 25 mM MOPS pH 7.5, 0.005% (v/v) Triton X-100 and 5 mM MgCl2. The reaction mixture was removed from the plate by washing with PBS containing 0.1% (v/v) Tween 20. The phosphorylated reaction product was detected using 0.2 ug/mL of a phosphotyrosine specific monoclonal antibody (clone PY20) conjugated to horseradish peroxidase in conjunction with the TMB Peroxidase Substrate System (KPL).

>  <BAO Format ID>  (475) 
BAO_0000357

>  <BAO Label>  (475) 
single protein format

>  <Assay Organism>  (475) 
None

>  <Target ChEMBL ID>  (475) 
CHEMBL2815

>  <Target Name>  (475) 
Nerve growth factor receptor Trk-A

>  <Target Organism>  (475) 
Homo sapiens

>  <Target Type>  (475) 
SINGLE PROTEIN

>  <Document ChEMBL ID>  (475) 
CHEMBL3638907

>  <Source Description>  (475) 
BindingDB Database

>  <Document Journal>  (475) 
nan

>  <Document Year>  (475) 
2014.0

>  <Active>  (475) 
1.0

>  <bits>  (475) 
<rdkit.DataStructs.cDataStructs.ExplicitBitVect object at 0x00000159F54709E0>

>  <Group>  (475) 
G2

$$$$

     RDKit          2D

 31 35  0  0  0  0  0  0  0  0999 V2000
    5.9262   -3.3786    0.0000 C   0  0  0  0  0  0  0  0  0  0  0  0
    5.4627   -1.9520    0.0000 C   0  0  0  0  0  0  0  0  0  0  0  0
    6.4664   -0.8373    0.0000 N   0  0  0  0  0  0  0  0  0  0  0  0
    6.0029    0.5893    0.0000 C   0  0  0  0  0  0  0  0  0  0  0  0
    4.5356    0.9012    0.0000 C   0  0  0  0  0  0  0  0  0  0  0  0
    4.0721    2.3277    0.0000 F   0  0  0  0  0  0  0  0  0  0  0  0
    3.5320   -0.2136    0.0000 C   0  0  0  0  0  0  0  0  0  0  0  0
    3.9955   -1.6402    0.0000 C   0  0  0  0  0  0  0  0  0  0  0  0
    2.9918   -2.7549    0.0000 C   0  0  0  0  0  0  0  0  0  0  0  0
    3.3037   -4.2221    0.0000 C   0  0  0  0  0  0  0  0  0  0  0  0
    2.0046   -4.9721    0.0000 C   0  0  0  0  0  0  0  0  0  0  0  0
    0.8899   -3.9684    0.0000 C   0  0  0  0  0  0  0  0  0  0  0  0
    1.5000   -2.5981    0.0000 N   0  0  0  0  0  0  0  0  0  0  0  0
    0.7500   -1.2990    0.0000 C   0  0  0  0  0  0  0  0  0  0  0  0
    1.5000    0.0000    0.0000 C   0  0  0  0  0  0  0  0  0  0  0  0
    0.7500    1.2990    0.0000 C   0  0  0  0  0  0  0  0  0  0  0  0
   -0.7500    1.2990    0.0000 N   0  0  0  0  0  0  0  0  0  0  0  0
   -1.7537    2.4138    0.0000 N   0  0  0  0  0  0  0  0  0  0  0  0
   -3.1240    1.8037    0.0000 C   0  0  0  0  0  0  0  0  0  0  0  0
   -2.9672    0.3119    0.0000 C   0  0  0  0  0  0  0  0  0  0  0  0
   -4.0819   -0.6918    0.0000 C   0  0  0  0  0  0  0  0  0  0  0  0
   -3.7701   -2.1590    0.0000 O   0  0  0  0  0  0  0  0  0  0  0  0
   -5.5085   -0.2283    0.0000 N   0  0  0  0  0  0  0  0  0  0  0  0
   -6.6232   -1.2320    0.0000 C   0  0  0  0  0  0  0  0  0  0  0  0
   -6.4664   -2.7238    0.0000 C   0  0  0  0  0  0  0  0  0  0  0  0
   -7.8368   -3.3339    0.0000 C   0  0  0  0  0  0  0  0  0  0  0  0
   -8.8405   -2.2192    0.0000 C   0  0  0  0  0  0  0  0  0  0  0  0
  -10.3322   -2.3760    0.0000 O   0  0  0  0  0  0  0  0  0  0  0  0
   -8.0905   -0.9201    0.0000 C   0  0  0  0  0  0  0  0  0  0  0  0
   -1.5000    0.0000    0.0000 C   0  0  0  0  0  0  0  0  0  0  0  0
   -0.7500   -1.2990    0.0000 N   0  0  0  0  0  0  0  0  0  0  0  0
  1  2  1  0
  2  3  2  0
  3  4  1  0
  4  5  2  0
  5  6  1  0
  5  7  1  0
  7  8  2  0
  8  9  1  0
  9 10  1  0
 10 11  1  0
 11 12  1  0
 12 13  1  0
 13 14  1  0
 14 15  1  0
 15 16  2  0
 16 17  1  0
 17 18  1  0
 18 19  2  0
 19 20  1  0
 20 21  1  0
 21 22  2  0
 21 23  1  0
 24 23  1  1
 24 25  1  0
 25 26  1  0
 26 27  1  0
 27 28  1  6
 27 29  1  0
 20 30  2  0
 30 31  1  0
  8  2  1  0
 13  9  1  0
 31 14  2  0
 30 17  1  0
 29 24  1  0
M  END
>  <Compound_ID>  (476) 
CHEMBL3676063

>  <Molecule Name>  (476) 
nan

>  <Molecular Weight>  (476) 
424.48

>  <AlogP>  (476) 
2.56

>  <Smiles>  (476) 
Cc1ncc(F)cc1C1CCCN1c1ccn2ncc(C(=O)N[C@H]3CC[C@H](O)C3)c2n1

>  <Standard Type>  (476) 
IC50

>  <Standard Relation>  (476) 
'='

>  <Standard Units>  (476) 
nM

>  <Standard Value>  (476) 
6.8

>  <Assay ChEMBL ID>  (476) 
CHEMBL3887070

>  <Assay Description>  (476) 
ELISA Assay: An enzyme-linked immunosorbant assay (ELISA) was used to assess TrkA kinase activity in the presence of inhibitors. Immulon 4HBX 384-well microtiter plates (Thermo part #8755) were coated with a 0.025 mg/mL solution of poly (Glu, Ala, Tyr; 6:3:1; Sigma P3899). Various concentrations of test compound, 2.5 nM TrkA (Invitrogen Corp., histidine-tagged recombinant human TrkA, cytoplasmic domain), and 500 uM ATP were incubated for 25 minutes at ambient temperature in the coated plates while shaking The assay buffer consisted of 25 mM MOPS pH 7.5, 0.005% (v/v) Triton X-100 and 5 mM MgCl2. The reaction mixture was removed from the plate by washing with PBS containing 0.1% (v/v) Tween 20. The phosphorylated reaction product was detected using 0.2 ug/mL of a phosphotyrosine specific monoclonal antibody (clone PY20) conjugated to horseradish peroxidase in conjunction with the TMB Peroxidase Substrate System (KPL).

>  <BAO Format ID>  (476) 
BAO_0000357

>  <BAO Label>  (476) 
single protein format

>  <Assay Organism>  (476) 
None

>  <Target ChEMBL ID>  (476) 
CHEMBL2815

>  <Target Name>  (476) 
Nerve growth factor receptor Trk-A

>  <Target Organism>  (476) 
Homo sapiens

>  <Target Type>  (476) 
SINGLE PROTEIN

>  <Document ChEMBL ID>  (476) 
CHEMBL3638907

>  <Source Description>  (476) 
BindingDB Database

>  <Document Journal>  (476) 
nan

>  <Document Year>  (476) 
2014.0

>  <Active>  (476) 
1.0

>  <bits>  (476) 
<rdkit.DataStructs.cDataStructs.ExplicitBitVect object at 0x00000159F5471A10>

>  <Group>  (476) 
G2

$$$$

     RDKit          2D

 32 36  0  0  0  0  0  0  0  0999 V2000
   -7.0187   -9.6927    0.0000 C   0  0  0  0  0  0  0  0  0  0  0  0
   -5.9040   -8.6890    0.0000 C   0  0  0  0  0  0  0  0  0  0  0  0
   -4.4367   -9.0009    0.0000 C   0  0  0  0  0  0  0  0  0  0  0  0
   -3.6867   -7.7018    0.0000 C   0  0  0  0  0  0  0  0  0  0  0  0
   -4.6904   -6.5871    0.0000 C   0  0  0  0  0  0  0  0  0  0  0  0
   -4.3786   -5.1199    0.0000 C   0  0  0  0  0  0  0  0  0  0  0  0
   -2.9520   -4.6564    0.0000 N   0  0  0  0  0  0  0  0  0  0  0  0
   -2.6401   -3.1891    0.0000 C   0  0  0  0  0  0  0  0  0  0  0  0
   -3.7548   -2.1855    0.0000 O   0  0  0  0  0  0  0  0  0  0  0  0
   -1.2135   -2.7256    0.0000 C   0  0  0  0  0  0  0  0  0  0  0  0
   -0.0000   -3.6073    0.0000 C   0  0  0  0  0  0  0  0  0  0  0  0
    1.2135   -2.7256    0.0000 N   0  0  0  0  0  0  0  0  0  0  0  0
    0.7500   -1.2990    0.0000 N   0  0  0  0  0  0  0  0  0  0  0  0
    1.5000    0.0000    0.0000 C   0  0  0  0  0  0  0  0  0  0  0  0
    0.7500    1.2990    0.0000 C   0  0  0  0  0  0  0  0  0  0  0  0
   -0.7500    1.2990    0.0000 C   0  0  0  0  0  0  0  0  0  0  0  0
   -1.5000    2.5981    0.0000 N   0  0  0  0  0  0  0  0  0  0  0  0
   -2.9918    2.7549    0.0000 C   0  0  0  0  0  0  0  0  0  0  0  0
   -3.3037    4.2221    0.0000 C   0  0  0  0  0  0  0  0  0  0  0  0
   -2.0046    4.9721    0.0000 C   0  0  0  0  0  0  0  0  0  0  0  0
   -0.8899    3.9684    0.0000 C   0  0  0  0  0  0  0  0  0  0  0  0
    0.5773    4.2803    0.0000 C   0  0  0  0  0  0  0  0  0  0  0  0
    1.5810    3.1655    0.0000 C   0  0  0  0  0  0  0  0  0  0  0  0
    3.0482    3.4774    0.0000 C   0  0  0  0  0  0  0  0  0  0  0  0
    4.0519    2.3627    0.0000 F   0  0  0  0  0  0  0  0  0  0  0  0
    3.5118    4.9040    0.0000 C   0  0  0  0  0  0  0  0  0  0  0  0
    2.5081    6.0187    0.0000 C   0  0  0  0  0  0  0  0  0  0  0  0
    1.0409    5.7068    0.0000 C   0  0  0  0  0  0  0  0  0  0  0  0
    0.0372    6.8216    0.0000 F   0  0  0  0  0  0  0  0  0  0  0  0
   -1.5000    0.0000    0.0000 N   0  0  0  0  0  0  0  0  0  0  0  0
   -0.7500   -1.2990    0.0000 C   0  0  0  0  0  0  0  0  0  0  0  0
   -6.0607   -7.1972    0.0000 O   0  0  0  0  0  0  0  0  0  0  0  0
  1  2  1  0
  2  3  2  0
  3  4  1  0
  4  5  2  0
  5  6  1  0
  6  7  1  0
  7  8  1  0
  8  9  2  0
  8 10  1  0
 10 11  1  0
 11 12  2  0
 12 13  1  0
 13 14  1  0
 14 15  2  0
 15 16  1  0
 16 17  1  0
 17 18  1  0
 18 19  1  0
 19 20  1  0
 20 21  1  0
 21 22  1  6
 22 23  2  0
 23 24  1  0
 24 25  1  0
 24 26  2  0
 26 27  1  0
 27 28  2  0
 28 29  1  0
 16 30  2  0
 30 31  1  0
  5 32  1  0
 32  2  1  0
 31 10  2  0
 31 13  1  0
 21 17  1  0
 28 22  1  0
M  END
>  <Compound_ID>  (477) 
CHEMBL3671133

>  <Molecule Name>  (477) 
nan

>  <Molecular Weight>  (477) 
437.45

>  <AlogP>  (477) 
4.18

>  <Smiles>  (477) 
Cc1ccc(CNC(=O)c2cnn3ccc(N4CCC[C@@H]4c4cc(F)ccc4F)nc23)o1

>  <Standard Type>  (477) 
IC50

>  <Standard Relation>  (477) 
'='

>  <Standard Units>  (477) 
nM

>  <Standard Value>  (477) 
0.95

>  <Assay ChEMBL ID>  (477) 
CHEMBL3887070

>  <Assay Description>  (477) 
ELISA Assay: An enzyme-linked immunosorbant assay (ELISA) was used to assess TrkA kinase activity in the presence of inhibitors. Immulon 4HBX 384-well microtiter plates (Thermo part #8755) were coated with a 0.025 mg/mL solution of poly (Glu, Ala, Tyr; 6:3:1; Sigma P3899). Various concentrations of test compound, 2.5 nM TrkA (Invitrogen Corp., histidine-tagged recombinant human TrkA, cytoplasmic domain), and 500 uM ATP were incubated for 25 minutes at ambient temperature in the coated plates while shaking The assay buffer consisted of 25 mM MOPS pH 7.5, 0.005% (v/v) Triton X-100 and 5 mM MgCl2. The reaction mixture was removed from the plate by washing with PBS containing 0.1% (v/v) Tween 20. The phosphorylated reaction product was detected using 0.2 ug/mL of a phosphotyrosine specific monoclonal antibody (clone PY20) conjugated to horseradish peroxidase in conjunction with the TMB Peroxidase Substrate System (KPL).

>  <BAO Format ID>  (477) 
BAO_0000357

>  <BAO Label>  (477) 
single protein format

>  <Assay Organism>  (477) 
None

>  <Target ChEMBL ID>  (477) 
CHEMBL2815

>  <Target Name>  (477) 
Nerve growth factor receptor Trk-A

>  <Target Organism>  (477) 
Homo sapiens

>  <Target Type>  (477) 
SINGLE PROTEIN

>  <Document ChEMBL ID>  (477) 
CHEMBL3638907

>  <Source Description>  (477) 
BindingDB Database

>  <Document Journal>  (477) 
nan

>  <Document Year>  (477) 
2014.0

>  <Active>  (477) 
1.0

>  <bits>  (477) 
<rdkit.DataStructs.cDataStructs.ExplicitBitVect object at 0x00000159F5472110>

>  <Group>  (477) 
G2

$$$$

     RDKit          2D

 40 45  0  0  0  0  0  0  0  0999 V2000
   -8.2500   -1.2990    0.0000 C   0  0  0  0  0  0  0  0  0  0  0  0
   -7.5000   -2.5981    0.0000 C   0  0  0  0  0  0  0  0  0  0  0  0
   -6.0000   -2.5981    0.0000 C   0  0  0  0  0  0  0  0  0  0  0  0
   -5.2500   -3.8971    0.0000 C   0  0  0  0  0  0  0  0  0  0  0  0
   -3.7500   -3.8971    0.0000 C   0  0  0  0  0  0  0  0  0  0  0  0
   -3.0000   -2.5981    0.0000 O   0  0  0  0  0  0  0  0  0  0  0  0
   -3.0000   -5.1962    0.0000 N   0  0  0  0  0  0  0  0  0  0  0  0
   -1.5000   -5.1962    0.0000 C   0  0  0  0  0  0  0  0  0  0  0  0
   -0.7500   -6.4952    0.0000 C   0  0  0  0  0  0  0  0  0  0  0  0
    0.7500   -6.4952    0.0000 C   0  0  0  0  0  0  0  0  0  0  0  0
    1.5000   -5.1962    0.0000 C   0  0  0  0  0  0  0  0  0  0  0  0
    0.7500   -3.8971    0.0000 C   0  0  0  0  0  0  0  0  0  0  0  0
    1.5000   -2.5981    0.0000 N   0  0  0  0  0  0  0  0  0  0  0  0
    0.7500   -1.2990    0.0000 C   0  0  0  0  0  0  0  0  0  0  0  0
    1.5000    0.0000    0.0000 C   0  0  0  0  0  0  0  0  0  0  0  0
    0.7500    1.2990    0.0000 C   0  0  0  0  0  0  0  0  0  0  0  0
   -0.7500    1.2990    0.0000 C   0  0  0  0  0  0  0  0  0  0  0  0
   -1.5000    0.0000    0.0000 C   0  0  0  0  0  0  0  0  0  0  0  0
   -0.7500   -1.2990    0.0000 C   0  0  0  0  0  0  0  0  0  0  0  0
   -2.9672    0.3119    0.0000 N   0  0  0  0  0  0  0  0  0  0  0  0
   -3.1240    1.8037    0.0000 C   0  0  0  0  0  0  0  0  0  0  0  0
   -4.4231    2.5537    0.0000 O   0  0  0  0  0  0  0  0  0  0  0  0
   -1.7537    2.4138    0.0000 C   0  0  0  0  0  0  0  0  0  0  0  0
   -1.4418    3.8810    0.0000 C   0  0  0  0  0  0  0  0  0  0  0  0
   -2.5565    4.8847    0.0000 C   0  0  0  0  0  0  0  0  0  0  0  0
   -4.0238    4.5728    0.0000 C   0  0  0  0  0  0  0  0  0  0  0  0
   -4.7738    5.8718    0.0000 C   0  0  0  0  0  0  0  0  0  0  0  0
   -3.7701    6.9866    0.0000 C   0  0  0  0  0  0  0  0  0  0  0  0
   -2.3998    6.3765    0.0000 N   0  0  0  0  0  0  0  0  0  0  0  0
   -0.7500   -3.8971    0.0000 C   0  0  0  0  0  0  0  0  0  0  0  0
   -6.0000   -5.1962    0.0000 C   0  0  0  0  0  0  0  0  0  0  0  0
   -7.5000   -5.1962    0.0000 C   0  0  0  0  0  0  0  0  0  0  0  0
   -8.2500   -6.4952    0.0000 N   0  0  0  0  0  0  0  0  0  0  0  0
   -9.7500   -6.4952    0.0000 C   0  0  0  0  0  0  0  0  0  0  0  0
  -10.5000   -7.7942    0.0000 C   0  0  0  0  0  0  0  0  0  0  0  0
   -9.7500   -9.0933    0.0000 N   0  0  0  0  0  0  0  0  0  0  0  0
  -10.5000  -10.3923    0.0000 C   0  0  0  0  0  0  0  0  0  0  0  0
   -8.2500   -9.0933    0.0000 C   0  0  0  0  0  0  0  0  0  0  0  0
   -7.5000   -7.7942    0.0000 C   0  0  0  0  0  0  0  0  0  0  0  0
   -8.2500   -3.8971    0.0000 C   0  0  0  0  0  0  0  0  0  0  0  0
  1  2  1  0
  2  3  2  0
  3  4  1  0
  4  5  1  0
  5  6  2  0
  5  7  1  0
  7  8  1  0
  8  9  2  0
  9 10  1  0
 10 11  2  0
 11 12  1  0
 12 13  1  0
 13 14  1  0
 14 15  2  0
 15 16  1  0
 16 17  2  0
 17 18  1  0
 18 19  2  0
 18 20  1  0
 20 21  1  0
 21 22  2  0
 21 23  1  0
 23 24  2  0
 24 25  1  0
 25 26  2  0
 26 27  1  0
 27 28  2  0
 28 29  1  0
 12 30  2  0
  4 31  2  0
 31 32  1  0
 32 33  1  0
 33 34  1  0
 34 35  1  0
 35 36  1  0
 36 37  1  0
 36 38  1  0
 38 39  1  0
 32 40  2  0
 40  2  1  0
 30  8  1  0
 39 33  1  0
 19 14  1  0
 29 25  1  0
 23 17  1  0
M  END
>  <Compound_ID>  (478) 
CHEMBL2037210

>  <Molecule Name>  (478) 
nan

>  <Molecular Weight>  (478) 
532.65

>  <AlogP>  (478) 
5.56

>  <Smiles>  (478) 
Cc1cc(C(=O)Nc2cccc(Nc3ccc4c(c3)NC(=O)/C4=C\c3ccc[nH]3)c2)cc(N2CCN(C)CC2)c1

>  <Standard Type>  (478) 
IC50

>  <Standard Relation>  (478) 
'='

>  <Standard Units>  (478) 
nM

>  <Standard Value>  (478) 
16.0

>  <Assay ChEMBL ID>  (478) 
CHEMBL2038860

>  <Assay Description>  (478) 
Inhibition of TRKA by HTRF assay

>  <BAO Format ID>  (478) 
BAO_0000357

>  <BAO Label>  (478) 
single protein format

>  <Assay Organism>  (478) 
None

>  <Target ChEMBL ID>  (478) 
CHEMBL2815

>  <Target Name>  (478) 
Nerve growth factor receptor Trk-A

>  <Target Organism>  (478) 
Homo sapiens

>  <Target Type>  (478) 
SINGLE PROTEIN

>  <Document ChEMBL ID>  (478) 
CHEMBL2034853

>  <Source Description>  (478) 
Scientific Literature

>  <Document Journal>  (478) 
ACS Med Chem Lett

>  <Document Year>  (478) 
2012.0

>  <Active>  (478) 
1.0

>  <bits>  (478) 
<rdkit.DataStructs.cDataStructs.ExplicitBitVect object at 0x00000159F54714D0>

>  <Group>  (478) 
G2

$$$$

     RDKit          2D

 34 37  0  0  0  0  0  0  0  0999 V2000
   -2.1766   -4.6157    0.0000 C   0  0  0  0  0  0  0  0  0  0  0  0
   -2.6401   -3.1891    0.0000 C   0  0  0  0  0  0  0  0  0  0  0  0
   -3.1036   -1.7626    0.0000 C   0  0  0  0  0  0  0  0  0  0  0  0
   -4.0667   -3.6527    0.0000 C   0  0  0  0  0  0  0  0  0  0  0  0
   -5.1814   -2.6490    0.0000 O   0  0  0  0  0  0  0  0  0  0  0  0
   -1.2135   -2.7256    0.0000 N   0  0  0  0  0  0  0  0  0  0  0  0
   -0.0000   -3.6073    0.0000 C   0  0  0  0  0  0  0  0  0  0  0  0
    1.2135   -2.7256    0.0000 C   0  0  0  0  0  0  0  0  0  0  0  0
    2.6401   -3.1891    0.0000 C   0  0  0  0  0  0  0  0  0  0  0  0
    3.7548   -2.1855    0.0000 O   0  0  0  0  0  0  0  0  0  0  0  0
    2.9520   -4.6564    0.0000 C   0  0  0  0  0  0  0  0  0  0  0  0
    1.8373   -5.6601    0.0000 C   0  0  0  0  0  0  0  0  0  0  0  0
    2.1491   -7.1273    0.0000 N   0  0  0  0  0  0  0  0  0  0  0  0
    3.5757   -7.5908    0.0000 C   0  0  0  0  0  0  0  0  0  0  0  0
    4.6904   -6.5871    0.0000 C   0  0  0  0  0  0  0  0  0  0  0  0
    6.1170   -7.0506    0.0000 N   0  0  0  0  0  0  0  0  0  0  0  0
    6.4289   -8.5179    0.0000 C   0  0  0  0  0  0  0  0  0  0  0  0
    5.3142   -9.5216    0.0000 O   0  0  0  0  0  0  0  0  0  0  0  0
    7.8555   -8.9814    0.0000 C   0  0  0  0  0  0  0  0  0  0  0  0
    8.1673  -10.4486    0.0000 C   0  0  0  0  0  0  0  0  0  0  0  0
    7.0526  -11.4523    0.0000 C   0  0  0  0  0  0  0  0  0  0  0  0
    7.3645  -12.9195    0.0000 C   0  0  0  0  0  0  0  0  0  0  0  0
    8.7911  -13.3831    0.0000 C   0  0  0  0  0  0  0  0  0  0  0  0
    9.1029  -14.8503    0.0000 F   0  0  0  0  0  0  0  0  0  0  0  0
    9.9058  -12.3794    0.0000 C   0  0  0  0  0  0  0  0  0  0  0  0
    9.5939  -10.9121    0.0000 N   0  0  0  0  0  0  0  0  0  0  0  0
    4.3786   -5.1199    0.0000 C   0  0  0  0  0  0  0  0  0  0  0  0
    0.7500   -1.2990    0.0000 C   0  0  0  0  0  0  0  0  0  0  0  0
    1.5000    0.0000    0.0000 C   0  0  0  0  0  0  0  0  0  0  0  0
    0.7500    1.2990    0.0000 N   0  0  0  0  0  0  0  0  0  0  0  0
   -0.7500    1.2990    0.0000 C   0  0  0  0  0  0  0  0  0  0  0  0
   -1.5000    0.0000    0.0000 C   0  0  0  0  0  0  0  0  0  0  0  0
   -3.0000    0.0000    0.0000 F   0  0  0  0  0  0  0  0  0  0  0  0
   -0.7500   -1.2990    0.0000 C   0  0  0  0  0  0  0  0  0  0  0  0
  1  2  1  0
  2  3  1  0
  2  4  1  0
  4  5  1  0
  2  6  1  0
  6  7  1  0
  7  8  2  0
  8  9  1  0
  9 10  2  0
  9 11  1  0
 11 12  2  0
 12 13  1  0
 13 14  2  0
 14 15  1  0
 15 16  1  0
 16 17  1  0
 17 18  2  0
 17 19  1  0
 19 20  1  0
 20 21  2  0
 21 22  1  0
 22 23  2  0
 23 24  1  0
 23 25  1  0
 25 26  2  0
 15 27  2  0
  8 28  1  0
 28 29  2  0
 29 30  1  0
 30 31  2  0
 31 32  1  0
 32 33  1  0
 32 34  2  0
 34  6  1  0
 27 11  1  0
 34 28  1  0
 26 20  1  0
M  END
>  <Compound_ID>  (479) 
CHEMBL3981123

>  <Molecule Name>  (479) 
nan

>  <Molecular Weight>  (479) 
465.46

>  <AlogP>  (479) 
3.24

>  <Smiles>  (479) 
CC(C)(CO)n1cc(C(=O)c2cncc(NC(=O)Cc3ccc(F)cn3)c2)c2cncc(F)c21

>  <Standard Type>  (479) 
IC50

>  <Standard Relation>  (479) 
'='

>  <Standard Units>  (479) 
nM

>  <Standard Value>  (479) 
38.7

>  <Assay ChEMBL ID>  (479) 
CHEMBL3887111

>  <Assay Description>  (479) 
HTRF Assay: Isolated TRK Enzyme assays use the HTRF KinEASE-TK kit (Cisbio Cat#62TK0PEJ) with recombinant His-tagged cytoplasmic domains of each TRK receptor sourced from Invitrogen (see table below). This activity-assay measures the phosphorylation of tyrosine residues within a substrate from the HTRF kit which has been validated by Cisbio for a variety of tyrosine kinases including the TRK receptors.Assay Details: Invitrogen Amino FAC FAC Assay ReactionTarget Cat# acids enzyme ATP TimeTRKA PV3144 aa 441-4 nM 40 uM 35 min (NTRK1) 796 TRKB PV3616 aa 526-1 nM 1.4 uM 40 min (NTRK2) 838 TRKC PV3617 aa 510- 10 nM 15 uM 30 min (NTRK3) 8250.5 mM stock solutions of test compounds are prepared and serially diluted in 100% DMSO. A standard curve using the compound of Example 135 disclosed in WO2005/116035 of 150 uM is also prepared on each test plate. High percentage effect (HPE) is defined by 150 uM.

>  <BAO Format ID>  (479) 
BAO_0000357

>  <BAO Label>  (479) 
single protein format

>  <Assay Organism>  (479) 
None

>  <Target ChEMBL ID>  (479) 
CHEMBL2815

>  <Target Name>  (479) 
Nerve growth factor receptor Trk-A

>  <Target Organism>  (479) 
Homo sapiens

>  <Target Type>  (479) 
SINGLE PROTEIN

>  <Document ChEMBL ID>  (479) 
CHEMBL3886170

>  <Source Description>  (479) 
BindingDB Database

>  <Document Journal>  (479) 
nan

>  <Document Year>  (479) 
2015.0

>  <Active>  (479) 
1.0

>  <bits>  (479) 
<rdkit.DataStructs.cDataStructs.ExplicitBitVect object at 0x00000159F5472AB0>

>  <Group>  (479) 
G2

$$$$

     RDKit          2D

 34 38  0  0  0  0  0  0  0  0999 V2000
   -2.1766   -4.6157    0.0000 C   0  0  0  0  0  0  0  0  0  0  0  0
   -2.6401   -3.1891    0.0000 C   0  0  0  0  0  0  0  0  0  0  0  0
   -3.1036   -1.7626    0.0000 C   0  0  0  0  0  0  0  0  0  0  0  0
   -4.0667   -3.6527    0.0000 C   0  0  0  0  0  0  0  0  0  0  0  0
   -5.1814   -2.6490    0.0000 O   0  0  0  0  0  0  0  0  0  0  0  0
   -1.2135   -2.7256    0.0000 N   0  0  0  0  0  0  0  0  0  0  0  0
   -0.0000   -3.6073    0.0000 C   0  0  0  0  0  0  0  0  0  0  0  0
    1.2135   -2.7256    0.0000 C   0  0  0  0  0  0  0  0  0  0  0  0
    2.6401   -3.1891    0.0000 C   0  0  0  0  0  0  0  0  0  0  0  0
    3.7548   -2.1855    0.0000 O   0  0  0  0  0  0  0  0  0  0  0  0
    2.9520   -4.6564    0.0000 C   0  0  0  0  0  0  0  0  0  0  0  0
    1.8373   -5.6601    0.0000 C   0  0  0  0  0  0  0  0  0  0  0  0
    2.1491   -7.1273    0.0000 C   0  0  0  0  0  0  0  0  0  0  0  0
    1.0344   -8.1310    0.0000 N   0  0  0  0  0  0  0  0  0  0  0  0
   -0.3922   -7.6675    0.0000 C   0  0  0  0  0  0  0  0  0  0  0  0
   -0.7040   -6.2002    0.0000 O   0  0  0  0  0  0  0  0  0  0  0  0
   -1.5069   -8.6712    0.0000 C   0  0  0  0  0  0  0  0  0  0  0  0
   -2.9335   -8.2076    0.0000 N   0  0  0  0  0  0  0  0  0  0  0  0
   -4.1470   -9.0893    0.0000 C   0  0  0  0  0  0  0  0  0  0  0  0
   -5.3605   -8.2076    0.0000 C   0  0  0  0  0  0  0  0  0  0  0  0
   -4.8970   -6.7810    0.0000 C   0  0  0  0  0  0  0  0  0  0  0  0
   -5.7787   -5.5675    0.0000 C   0  0  0  0  0  0  0  0  0  0  0  0
   -7.1490   -4.9574    0.0000 C   0  0  0  0  0  0  0  0  0  0  0  0
   -5.9355   -4.0757    0.0000 C   0  0  0  0  0  0  0  0  0  0  0  0
   -3.3970   -6.7810    0.0000 N   0  0  0  0  0  0  0  0  0  0  0  0
    3.5757   -7.5908    0.0000 C   0  0  0  0  0  0  0  0  0  0  0  0
    4.6904   -6.5871    0.0000 C   0  0  0  0  0  0  0  0  0  0  0  0
    4.3786   -5.1199    0.0000 N   0  0  0  0  0  0  0  0  0  0  0  0
    0.7500   -1.2990    0.0000 C   0  0  0  0  0  0  0  0  0  0  0  0
    1.5000    0.0000    0.0000 C   0  0  0  0  0  0  0  0  0  0  0  0
    0.7500    1.2990    0.0000 N   0  0  0  0  0  0  0  0  0  0  0  0
   -0.7500    1.2990    0.0000 C   0  0  0  0  0  0  0  0  0  0  0  0
   -1.5000    0.0000    0.0000 C   0  0  0  0  0  0  0  0  0  0  0  0
   -0.7500   -1.2990    0.0000 C   0  0  0  0  0  0  0  0  0  0  0  0
  1  2  1  0
  2  3  1  0
  2  4  1  0
  4  5  1  0
  2  6  1  0
  6  7  1  0
  7  8  2  0
  8  9  1  0
  9 10  2  0
  9 11  1  0
 11 12  2  0
 12 13  1  0
 13 14  1  0
 14 15  1  0
 15 16  2  0
 15 17  1  0
 17 18  1  0
 18 19  1  0
 19 20  2  0
 20 21  1  0
 21 22  1  0
 22 23  1  0
 23 24  1  0
 21 25  2  0
 13 26  2  0
 26 27  1  0
 27 28  2  0
  8 29  1  0
 29 30  2  0
 30 31  1  0
 31 32  2  0
 32 33  1  0
 33 34  2  0
 34  6  1  0
 28 11  1  0
 34 29  1  0
 25 18  1  0
 24 22  1  0
M  END
>  <Compound_ID>  (480) 
CHEMBL3908299

>  <Molecule Name>  (480) 
nan

>  <Molecular Weight>  (480) 
458.52

>  <AlogP>  (480) 
3.1

>  <Smiles>  (480) 
CC(C)(CO)n1cc(C(=O)c2cc(NC(=O)Cn3ccc(C4CC4)n3)ccn2)c2cnccc21

>  <Standard Type>  (480) 
IC50

>  <Standard Relation>  (480) 
'='

>  <Standard Units>  (480) 
nM

>  <Standard Value>  (480) 
16.5

>  <Assay ChEMBL ID>  (480) 
CHEMBL3887111

>  <Assay Description>  (480) 
HTRF Assay: Isolated TRK Enzyme assays use the HTRF KinEASE-TK kit (Cisbio Cat#62TK0PEJ) with recombinant His-tagged cytoplasmic domains of each TRK receptor sourced from Invitrogen (see table below). This activity-assay measures the phosphorylation of tyrosine residues within a substrate from the HTRF kit which has been validated by Cisbio for a variety of tyrosine kinases including the TRK receptors.Assay Details: Invitrogen Amino FAC FAC Assay ReactionTarget Cat# acids enzyme ATP TimeTRKA PV3144 aa 441-4 nM 40 uM 35 min (NTRK1) 796 TRKB PV3616 aa 526-1 nM 1.4 uM 40 min (NTRK2) 838 TRKC PV3617 aa 510- 10 nM 15 uM 30 min (NTRK3) 8250.5 mM stock solutions of test compounds are prepared and serially diluted in 100% DMSO. A standard curve using the compound of Example 135 disclosed in WO2005/116035 of 150 uM is also prepared on each test plate. High percentage effect (HPE) is defined by 150 uM.

>  <BAO Format ID>  (480) 
BAO_0000357

>  <BAO Label>  (480) 
single protein format

>  <Assay Organism>  (480) 
None

>  <Target ChEMBL ID>  (480) 
CHEMBL2815

>  <Target Name>  (480) 
Nerve growth factor receptor Trk-A

>  <Target Organism>  (480) 
Homo sapiens

>  <Target Type>  (480) 
SINGLE PROTEIN

>  <Document ChEMBL ID>  (480) 
CHEMBL3886170

>  <Source Description>  (480) 
BindingDB Database

>  <Document Journal>  (480) 
nan

>  <Document Year>  (480) 
2015.0

>  <Active>  (480) 
1.0

>  <bits>  (480) 
<rdkit.DataStructs.cDataStructs.ExplicitBitVect object at 0x00000159F5470C10>

>  <Group>  (480) 
G2

$$$$

     RDKit          2D

 28 32  0  0  0  0  0  0  0  0999 V2000
   -3.7548   -2.1855    0.0000 O   0  0  0  0  0  0  0  0  0  0  0  0
   -2.6401   -3.1891    0.0000 C   0  0  0  0  0  0  0  0  0  0  0  0
   -2.9520   -4.6564    0.0000 N   0  0  0  0  0  0  0  0  0  0  0  0
   -4.3786   -5.1199    0.0000 C   0  0  0  0  0  0  0  0  0  0  0  0
   -4.6904   -6.5871    0.0000 C   0  0  0  0  0  0  0  0  0  0  0  0
   -4.2269   -8.0137    0.0000 C   0  0  0  0  0  0  0  0  0  0  0  0
   -5.6941   -7.7018    0.0000 C   0  0  0  0  0  0  0  0  0  0  0  0
   -1.2135   -2.7256    0.0000 C   0  0  0  0  0  0  0  0  0  0  0  0
   -0.0000   -3.6073    0.0000 C   0  0  0  0  0  0  0  0  0  0  0  0
    1.2135   -2.7256    0.0000 N   0  0  0  0  0  0  0  0  0  0  0  0
    0.7500   -1.2990    0.0000 N   0  0  0  0  0  0  0  0  0  0  0  0
    1.5000    0.0000    0.0000 C   0  0  0  0  0  0  0  0  0  0  0  0
    0.7500    1.2990    0.0000 C   0  0  0  0  0  0  0  0  0  0  0  0
   -0.7500    1.2990    0.0000 C   0  0  0  0  0  0  0  0  0  0  0  0
   -1.5000    2.5981    0.0000 N   0  0  0  0  0  0  0  0  0  0  0  0
   -2.9918    2.7549    0.0000 C   0  0  0  0  0  0  0  0  0  0  0  0
   -3.3037    4.2221    0.0000 C   0  0  0  0  0  0  0  0  0  0  0  0
   -2.0046    4.9721    0.0000 C   0  0  0  0  0  0  0  0  0  0  0  0
   -0.8899    3.9684    0.0000 C   0  0  0  0  0  0  0  0  0  0  0  0
    0.5773    4.2803    0.0000 C   0  0  0  0  0  0  0  0  0  0  0  0
    1.5810    3.1655    0.0000 C   0  0  0  0  0  0  0  0  0  0  0  0
    3.0482    3.4774    0.0000 N   0  0  0  0  0  0  0  0  0  0  0  0
    3.5118    4.9040    0.0000 C   0  0  0  0  0  0  0  0  0  0  0  0
    2.5081    6.0187    0.0000 C   0  0  0  0  0  0  0  0  0  0  0  0
    2.9716    7.4453    0.0000 F   0  0  0  0  0  0  0  0  0  0  0  0
    1.0409    5.7068    0.0000 C   0  0  0  0  0  0  0  0  0  0  0  0
   -1.5000    0.0000    0.0000 N   0  0  0  0  0  0  0  0  0  0  0  0
   -0.7500   -1.2990    0.0000 C   0  0  0  0  0  0  0  0  0  0  0  0
  1  2  2  0
  2  3  1  0
  3  4  1  0
  4  5  1  0
  5  6  1  0
  6  7  1  0
  2  8  1  0
  8  9  1  0
  9 10  2  0
 10 11  1  0
 11 12  1  0
 12 13  2  0
 13 14  1  0
 14 15  1  0
 15 16  1  0
 16 17  1  0
 17 18  1  0
 18 19  1  0
 19 20  1  0
 20 21  2  0
 21 22  1  0
 22 23  2  0
 23 24  1  0
 24 25  1  0
 24 26  2  0
 14 27  2  0
 27 28  1  0
  7  5  1  0
 28  8  2  0
 28 11  1  0
 19 15  1  0
 26 20  1  0
M  END
>  <Compound_ID>  (481) 
CHEMBL3675980

>  <Molecule Name>  (481) 
nan

>  <Molecular Weight>  (481) 
380.43

>  <AlogP>  (481) 
2.74

>  <Smiles>  (481) 
O=C(NCC1CC1)c1cnn2ccc(N3CCCC3c3cncc(F)c3)nc12

>  <Standard Type>  (481) 
IC50

>  <Standard Relation>  (481) 
'='

>  <Standard Units>  (481) 
nM

>  <Standard Value>  (481) 
7.7

>  <Assay ChEMBL ID>  (481) 
CHEMBL3887070

>  <Assay Description>  (481) 
ELISA Assay: An enzyme-linked immunosorbant assay (ELISA) was used to assess TrkA kinase activity in the presence of inhibitors. Immulon 4HBX 384-well microtiter plates (Thermo part #8755) were coated with a 0.025 mg/mL solution of poly (Glu, Ala, Tyr; 6:3:1; Sigma P3899). Various concentrations of test compound, 2.5 nM TrkA (Invitrogen Corp., histidine-tagged recombinant human TrkA, cytoplasmic domain), and 500 uM ATP were incubated for 25 minutes at ambient temperature in the coated plates while shaking The assay buffer consisted of 25 mM MOPS pH 7.5, 0.005% (v/v) Triton X-100 and 5 mM MgCl2. The reaction mixture was removed from the plate by washing with PBS containing 0.1% (v/v) Tween 20. The phosphorylated reaction product was detected using 0.2 ug/mL of a phosphotyrosine specific monoclonal antibody (clone PY20) conjugated to horseradish peroxidase in conjunction with the TMB Peroxidase Substrate System (KPL).

>  <BAO Format ID>  (481) 
BAO_0000357

>  <BAO Label>  (481) 
single protein format

>  <Assay Organism>  (481) 
None

>  <Target ChEMBL ID>  (481) 
CHEMBL2815

>  <Target Name>  (481) 
Nerve growth factor receptor Trk-A

>  <Target Organism>  (481) 
Homo sapiens

>  <Target Type>  (481) 
SINGLE PROTEIN

>  <Document ChEMBL ID>  (481) 
CHEMBL3638907

>  <Source Description>  (481) 
BindingDB Database

>  <Document Journal>  (481) 
nan

>  <Document Year>  (481) 
2014.0

>  <Active>  (481) 
1.0

>  <bits>  (481) 
<rdkit.DataStructs.cDataStructs.ExplicitBitVect object at 0x00000159F5470A50>

>  <Group>  (481) 
G2

$$$$

     RDKit          2D

 26 29  0  0  0  0  0  0  0  0999 V2000
   -4.3786   -5.1199    0.0000 C   0  0  0  0  0  0  0  0  0  0  0  0
   -2.9520   -4.6564    0.0000 N   0  0  0  0  0  0  0  0  0  0  0  0
   -2.6401   -3.1891    0.0000 C   0  0  0  0  0  0  0  0  0  0  0  0
   -3.7548   -2.1855    0.0000 O   0  0  0  0  0  0  0  0  0  0  0  0
   -1.2135   -2.7256    0.0000 C   0  0  0  0  0  0  0  0  0  0  0  0
   -0.0000   -3.6073    0.0000 C   0  0  0  0  0  0  0  0  0  0  0  0
    1.2135   -2.7256    0.0000 N   0  0  0  0  0  0  0  0  0  0  0  0
    0.7500   -1.2990    0.0000 N   0  0  0  0  0  0  0  0  0  0  0  0
    1.5000    0.0000    0.0000 C   0  0  0  0  0  0  0  0  0  0  0  0
    0.7500    1.2990    0.0000 C   0  0  0  0  0  0  0  0  0  0  0  0
   -0.7500    1.2990    0.0000 C   0  0  0  0  0  0  0  0  0  0  0  0
   -1.5000    2.5981    0.0000 N   0  0  0  0  0  0  0  0  0  0  0  0
   -2.9918    2.7549    0.0000 C   0  0  0  0  0  0  0  0  0  0  0  0
   -3.3037    4.2221    0.0000 C   0  0  0  0  0  0  0  0  0  0  0  0
   -4.6740    4.8322    0.0000 O   0  0  0  0  0  0  0  0  0  0  0  0
   -2.0046    4.9721    0.0000 C   0  0  0  0  0  0  0  0  0  0  0  0
   -0.8899    3.9684    0.0000 C   0  0  0  0  0  0  0  0  0  0  0  0
    0.5773    4.2803    0.0000 C   0  0  0  0  0  0  0  0  0  0  0  0
    1.5810    3.1655    0.0000 C   0  0  0  0  0  0  0  0  0  0  0  0
    3.0482    3.4774    0.0000 C   0  0  0  0  0  0  0  0  0  0  0  0
    3.5118    4.9040    0.0000 C   0  0  0  0  0  0  0  0  0  0  0  0
    2.5081    6.0187    0.0000 C   0  0  0  0  0  0  0  0  0  0  0  0
    2.9716    7.4453    0.0000 F   0  0  0  0  0  0  0  0  0  0  0  0
    1.0409    5.7068    0.0000 C   0  0  0  0  0  0  0  0  0  0  0  0
   -1.5000    0.0000    0.0000 N   0  0  0  0  0  0  0  0  0  0  0  0
   -0.7500   -1.2990    0.0000 C   0  0  0  0  0  0  0  0  0  0  0  0
  1  2  1  0
  2  3  1  0
  3  4  2  0
  3  5  1  0
  5  6  1  0
  6  7  2  0
  7  8  1  0
  8  9  1  0
  9 10  2  0
 10 11  1  0
 11 12  1  0
 12 13  1  0
 13 14  1  0
 14 15  1  1
 14 16  1  0
 16 17  1  0
 17 18  1  6
 18 19  2  0
 19 20  1  0
 20 21  2  0
 21 22  1  0
 22 23  1  0
 22 24  2  0
 11 25  2  0
 25 26  1  0
 26  5  2  0
 26  8  1  0
 17 12  1  0
 24 18  1  0
M  END
>  <Compound_ID>  (482) 
CHEMBL3676083

>  <Molecule Name>  (482) 
nan

>  <Molecular Weight>  (482) 
355.37

>  <AlogP>  (482) 
1.54

>  <Smiles>  (482) 
CNC(=O)c1cnn2ccc(N3C[C@@H](O)C[C@@H]3c3cccc(F)c3)nc12

>  <Standard Type>  (482) 
IC50

>  <Standard Relation>  (482) 
'='

>  <Standard Units>  (482) 
nM

>  <Standard Value>  (482) 
33.9

>  <Assay ChEMBL ID>  (482) 
CHEMBL3887070

>  <Assay Description>  (482) 
ELISA Assay: An enzyme-linked immunosorbant assay (ELISA) was used to assess TrkA kinase activity in the presence of inhibitors. Immulon 4HBX 384-well microtiter plates (Thermo part #8755) were coated with a 0.025 mg/mL solution of poly (Glu, Ala, Tyr; 6:3:1; Sigma P3899). Various concentrations of test compound, 2.5 nM TrkA (Invitrogen Corp., histidine-tagged recombinant human TrkA, cytoplasmic domain), and 500 uM ATP were incubated for 25 minutes at ambient temperature in the coated plates while shaking The assay buffer consisted of 25 mM MOPS pH 7.5, 0.005% (v/v) Triton X-100 and 5 mM MgCl2. The reaction mixture was removed from the plate by washing with PBS containing 0.1% (v/v) Tween 20. The phosphorylated reaction product was detected using 0.2 ug/mL of a phosphotyrosine specific monoclonal antibody (clone PY20) conjugated to horseradish peroxidase in conjunction with the TMB Peroxidase Substrate System (KPL).

>  <BAO Format ID>  (482) 
BAO_0000357

>  <BAO Label>  (482) 
single protein format

>  <Assay Organism>  (482) 
None

>  <Target ChEMBL ID>  (482) 
CHEMBL2815

>  <Target Name>  (482) 
Nerve growth factor receptor Trk-A

>  <Target Organism>  (482) 
Homo sapiens

>  <Target Type>  (482) 
SINGLE PROTEIN

>  <Document ChEMBL ID>  (482) 
CHEMBL3638907

>  <Source Description>  (482) 
BindingDB Database

>  <Document Journal>  (482) 
nan

>  <Document Year>  (482) 
2014.0

>  <Active>  (482) 
1.0

>  <bits>  (482) 
<rdkit.DataStructs.cDataStructs.ExplicitBitVect object at 0x00000159F5473610>

>  <Group>  (482) 
G2

$$$$

     RDKit          2D

 32 36  0  0  0  0  0  0  0  0999 V2000
   -3.8266  -10.3712    0.0000 C   0  0  0  0  0  0  0  0  0  0  0  0
   -4.4367   -9.0009    0.0000 N   0  0  0  0  0  0  0  0  0  0  0  0
   -3.6867   -7.7018    0.0000 C   0  0  0  0  0  0  0  0  0  0  0  0
   -4.6904   -6.5871    0.0000 C   0  0  0  0  0  0  0  0  0  0  0  0
   -4.3786   -5.1199    0.0000 C   0  0  0  0  0  0  0  0  0  0  0  0
   -2.9520   -4.6564    0.0000 N   0  0  0  0  0  0  0  0  0  0  0  0
   -2.6401   -3.1891    0.0000 C   0  0  0  0  0  0  0  0  0  0  0  0
   -3.7548   -2.1855    0.0000 O   0  0  0  0  0  0  0  0  0  0  0  0
   -1.2135   -2.7256    0.0000 C   0  0  0  0  0  0  0  0  0  0  0  0
   -0.0000   -3.6073    0.0000 C   0  0  0  0  0  0  0  0  0  0  0  0
    1.2135   -2.7256    0.0000 N   0  0  0  0  0  0  0  0  0  0  0  0
    0.7500   -1.2990    0.0000 N   0  0  0  0  0  0  0  0  0  0  0  0
    1.5000    0.0000    0.0000 C   0  0  0  0  0  0  0  0  0  0  0  0
    0.7500    1.2990    0.0000 C   0  0  0  0  0  0  0  0  0  0  0  0
   -0.7500    1.2990    0.0000 C   0  0  0  0  0  0  0  0  0  0  0  0
   -1.5000    2.5981    0.0000 N   0  0  0  0  0  0  0  0  0  0  0  0
   -2.9918    2.7549    0.0000 C   0  0  0  0  0  0  0  0  0  0  0  0
   -3.3037    4.2221    0.0000 C   0  0  0  0  0  0  0  0  0  0  0  0
   -2.0046    4.9721    0.0000 C   0  0  0  0  0  0  0  0  0  0  0  0
   -0.8899    3.9684    0.0000 C   0  0  0  0  0  0  0  0  0  0  0  0
    0.5773    4.2803    0.0000 C   0  0  0  0  0  0  0  0  0  0  0  0
    1.5810    3.1655    0.0000 C   0  0  0  0  0  0  0  0  0  0  0  0
    3.0482    3.4774    0.0000 C   0  0  0  0  0  0  0  0  0  0  0  0
    4.0519    2.3627    0.0000 F   0  0  0  0  0  0  0  0  0  0  0  0
    3.5118    4.9040    0.0000 C   0  0  0  0  0  0  0  0  0  0  0  0
    2.5081    6.0187    0.0000 C   0  0  0  0  0  0  0  0  0  0  0  0
    1.0409    5.7068    0.0000 C   0  0  0  0  0  0  0  0  0  0  0  0
    0.0372    6.8216    0.0000 F   0  0  0  0  0  0  0  0  0  0  0  0
   -1.5000    0.0000    0.0000 N   0  0  0  0  0  0  0  0  0  0  0  0
   -0.7500   -1.2990    0.0000 C   0  0  0  0  0  0  0  0  0  0  0  0
   -6.0607   -7.1972    0.0000 C   0  0  0  0  0  0  0  0  0  0  0  0
   -5.9040   -8.6890    0.0000 N   0  0  0  0  0  0  0  0  0  0  0  0
  1  2  1  0
  2  3  1  0
  3  4  2  0
  4  5  1  0
  5  6  1  0
  6  7  1  0
  7  8  2  0
  7  9  1  0
  9 10  1  0
 10 11  2  0
 11 12  1  0
 12 13  1  0
 13 14  2  0
 14 15  1  0
 15 16  1  0
 16 17  1  0
 17 18  1  0
 18 19  1  0
 19 20  1  0
 20 21  1  6
 21 22  2  0
 22 23  1  0
 23 24  1  0
 23 25  2  0
 25 26  1  0
 26 27  2  0
 27 28  1  0
 15 29  2  0
 29 30  1  0
  4 31  1  0
 31 32  2  0
 32  2  1  0
 30  9  2  0
 30 12  1  0
 20 16  1  0
 27 21  1  0
M  END
>  <Compound_ID>  (483) 
CHEMBL3671150

>  <Molecule Name>  (483) 
nan

>  <Molecular Weight>  (483) 
437.45

>  <AlogP>  (483) 
3.01

>  <Smiles>  (483) 
Cn1cc(CNC(=O)c2cnn3ccc(N4CCC[C@@H]4c4cc(F)ccc4F)nc23)cn1

>  <Standard Type>  (483) 
IC50

>  <Standard Relation>  (483) 
'='

>  <Standard Units>  (483) 
nM

>  <Standard Value>  (483) 
2.1

>  <Assay ChEMBL ID>  (483) 
CHEMBL3887070

>  <Assay Description>  (483) 
ELISA Assay: An enzyme-linked immunosorbant assay (ELISA) was used to assess TrkA kinase activity in the presence of inhibitors. Immulon 4HBX 384-well microtiter plates (Thermo part #8755) were coated with a 0.025 mg/mL solution of poly (Glu, Ala, Tyr; 6:3:1; Sigma P3899). Various concentrations of test compound, 2.5 nM TrkA (Invitrogen Corp., histidine-tagged recombinant human TrkA, cytoplasmic domain), and 500 uM ATP were incubated for 25 minutes at ambient temperature in the coated plates while shaking The assay buffer consisted of 25 mM MOPS pH 7.5, 0.005% (v/v) Triton X-100 and 5 mM MgCl2. The reaction mixture was removed from the plate by washing with PBS containing 0.1% (v/v) Tween 20. The phosphorylated reaction product was detected using 0.2 ug/mL of a phosphotyrosine specific monoclonal antibody (clone PY20) conjugated to horseradish peroxidase in conjunction with the TMB Peroxidase Substrate System (KPL).

>  <BAO Format ID>  (483) 
BAO_0000357

>  <BAO Label>  (483) 
single protein format

>  <Assay Organism>  (483) 
None

>  <Target ChEMBL ID>  (483) 
CHEMBL2815

>  <Target Name>  (483) 
Nerve growth factor receptor Trk-A

>  <Target Organism>  (483) 
Homo sapiens

>  <Target Type>  (483) 
SINGLE PROTEIN

>  <Document ChEMBL ID>  (483) 
CHEMBL3638907

>  <Source Description>  (483) 
BindingDB Database

>  <Document Journal>  (483) 
nan

>  <Document Year>  (483) 
2014.0

>  <Active>  (483) 
1.0

>  <bits>  (483) 
<rdkit.DataStructs.cDataStructs.ExplicitBitVect object at 0x00000159F54735A0>

>  <Group>  (483) 
G2

$$$$

     RDKit          2D

 39 44  0  0  0  0  0  0  0  0999 V2000
   -7.9882  -15.8540    0.0000 C   0  0  0  0  0  0  0  0  0  0  0  0
   -6.5616  -15.3904    0.0000 O   0  0  0  0  0  0  0  0  0  0  0  0
   -6.2498  -13.9232    0.0000 C   0  0  0  0  0  0  0  0  0  0  0  0
   -7.3645  -12.9195    0.0000 C   0  0  0  0  0  0  0  0  0  0  0  0
   -7.0526  -11.4523    0.0000 C   0  0  0  0  0  0  0  0  0  0  0  0
   -5.6260  -10.9888    0.0000 C   0  0  0  0  0  0  0  0  0  0  0  0
   -5.3142   -9.5216    0.0000 C   0  0  0  0  0  0  0  0  0  0  0  0
   -3.8876   -9.0580    0.0000 O   0  0  0  0  0  0  0  0  0  0  0  0
   -3.5757   -7.5908    0.0000 C   0  0  0  0  0  0  0  0  0  0  0  0
   -2.1491   -7.1273    0.0000 C   0  0  0  0  0  0  0  0  0  0  0  0
   -1.8373   -5.6601    0.0000 C   0  0  0  0  0  0  0  0  0  0  0  0
   -2.9520   -4.6564    0.0000 C   0  0  0  0  0  0  0  0  0  0  0  0
   -2.6401   -3.1891    0.0000 C   0  0  0  0  0  0  0  0  0  0  0  0
   -1.2135   -2.7256    0.0000 N   0  0  0  0  0  0  0  0  0  0  0  0
   -0.0000   -3.6073    0.0000 C   0  0  0  0  0  0  0  0  0  0  0  0
    1.2135   -2.7256    0.0000 N   0  0  0  0  0  0  0  0  0  0  0  0
    0.7500   -1.2990    0.0000 C   0  0  0  0  0  0  0  0  0  0  0  0
    1.5000    0.0000    0.0000 C   0  0  0  0  0  0  0  0  0  0  0  0
    0.7500    1.2990    0.0000 C   0  0  0  0  0  0  0  0  0  0  0  0
    1.5000    2.5981    0.0000 C   0  0  0  0  0  0  0  0  0  0  0  0
    0.8899    3.9684    0.0000 N   0  0  0  0  0  0  0  0  0  0  0  0
    2.0046    4.9721    0.0000 O   0  0  0  0  0  0  0  0  0  0  0  0
    3.3037    4.2221    0.0000 C   0  0  0  0  0  0  0  0  0  0  0  0
    4.6740    4.8322    0.0000 C   0  0  0  0  0  0  0  0  0  0  0  0
    5.8875    3.9505    0.0000 C   0  0  0  0  0  0  0  0  0  0  0  0
    7.2578    4.5606    0.0000 C   0  0  0  0  0  0  0  0  0  0  0  0
    7.4146    6.0524    0.0000 N   0  0  0  0  0  0  0  0  0  0  0  0
    6.2011    6.9341    0.0000 C   0  0  0  0  0  0  0  0  0  0  0  0
    4.8308    6.3240    0.0000 C   0  0  0  0  0  0  0  0  0  0  0  0
    2.9918    2.7549    0.0000 N   0  0  0  0  0  0  0  0  0  0  0  0
   -0.7500    1.2990    0.0000 C   0  0  0  0  0  0  0  0  0  0  0  0
   -1.5000    0.0000    0.0000 N   0  0  0  0  0  0  0  0  0  0  0  0
   -0.7500   -1.2990    0.0000 C   0  0  0  0  0  0  0  0  0  0  0  0
   -4.3786   -5.1199    0.0000 C   0  0  0  0  0  0  0  0  0  0  0  0
   -4.6904   -6.5871    0.0000 C   0  0  0  0  0  0  0  0  0  0  0  0
   -6.1170   -7.0506    0.0000 O   0  0  0  0  0  0  0  0  0  0  0  0
   -7.2317   -6.0469    0.0000 C   0  0  0  0  0  0  0  0  0  0  0  0
   -4.5113  -11.9925    0.0000 C   0  0  0  0  0  0  0  0  0  0  0  0
   -4.8232  -13.4597    0.0000 N   0  0  0  0  0  0  0  0  0  0  0  0
  1  2  1  0
  2  3  1  0
  3  4  2  0
  4  5  1  0
  5  6  2  0
  6  7  1  0
  7  8  1  0
  8  9  1  0
  9 10  2  0
 10 11  1  0
 11 12  2  0
 12 13  1  0
 13 14  1  0
 14 15  1  0
 15 16  2  0
 16 17  1  0
 17 18  2  0
 18 19  1  0
 19 20  1  0
 20 21  2  0
 21 22  1  0
 22 23  1  0
 23 24  1  0
 24 25  1  0
 25 26  1  0
 26 27  1  0
 27 28  1  0
 28 29  1  0
 23 30  2  0
 19 31  2  0
 31 32  1  0
 32 33  2  0
 12 34  1  0
 34 35  2  0
 35 36  1  0
 36 37  1  0
  6 38  1  0
 38 39  2  0
 39  3  1  0
 35  9  1  0
 33 14  1  0
 33 17  1  0
 30 20  1  0
 29 24  1  0
M  END
>  <Compound_ID>  (484) 
CHEMBL3673464

>  <Molecule Name>  (484) 
nan

>  <Molecular Weight>  (484) 
527.59

>  <AlogP>  (484) 
3.99

>  <Smiles>  (484) 
COc1ccc(COc2ccc(Cn3cnc4cc(-c5noc(C6CCNCC6)n5)cnc43)cc2OC)cn1

>  <Standard Type>  (484) 
IC50

>  <Standard Relation>  (484) 
'='

>  <Standard Units>  (484) 
nM

>  <Standard Value>  (484) 
26.0

>  <Assay ChEMBL ID>  (484) 
CHEMBL3887112

>  <Assay Description>  (484) 
Inhibition Assay: Reagents and consumables were purchased from Sigma Aldrich, Carna Biosciences, or Caliper Life Sciences. All assay reaction conditions for IC50 determinations were within the linear range with respect to time and enzyme concentration. In a 384 well polypropylene plate, TrkA (0.4 nM, Carna 08-186) was pre-incubated in a 100 mM Hepes-NaOH pH 7.5 buffer containing 0.01% Triton X-100, 10 mM MgCl2, 0.1% BSA, 1 mM DTT, 10 uM sodium orthovanadate and 10 uM beta-glycerophosphate and compound with a concentration of 2.5% DMSO for 15 minutes at room temperature. The reaction was initiated with an equal volume of peptide substrate (Caliper Life Sciences catalog no. 760430) and ATP in the aforementioned buffer. The final concentrations in the reaction were 200 pM TrkA, 1.5 uM peptide substrate and 55 uM ATP (ATP Km). The reaction was incubated at room temperature for 180 minutes and terminated with a buffer containing excess EDTA (100 mM Hepes-NaOH pH 7.5, 0.02% Brij.

>  <BAO Format ID>  (484) 
BAO_0000357

>  <BAO Label>  (484) 
single protein format

>  <Assay Organism>  (484) 
None

>  <Target ChEMBL ID>  (484) 
CHEMBL2815

>  <Target Name>  (484) 
Nerve growth factor receptor Trk-A

>  <Target Organism>  (484) 
Homo sapiens

>  <Target Type>  (484) 
SINGLE PROTEIN

>  <Document ChEMBL ID>  (484) 
CHEMBL3638818

>  <Source Description>  (484) 
BindingDB Database

>  <Document Journal>  (484) 
nan

>  <Document Year>  (484) 
2015.0

>  <Active>  (484) 
1.0

>  <bits>  (484) 
<rdkit.DataStructs.cDataStructs.ExplicitBitVect object at 0x00000159F54730D0>

>  <Group>  (484) 
G2

$$$$

     RDKit          2D

 29 32  0  0  0  0  0  0  0  0999 V2000
   -3.9150   -6.5465    0.0000 C   0  0  0  0  0  0  0  0  0  0  0  0
   -4.3786   -5.1199    0.0000 C   0  0  0  0  0  0  0  0  0  0  0  0
   -4.8421   -3.6933    0.0000 C   0  0  0  0  0  0  0  0  0  0  0  0
   -5.8051   -5.5834    0.0000 C   0  0  0  0  0  0  0  0  0  0  0  0
   -2.9520   -4.6564    0.0000 N   0  0  0  0  0  0  0  0  0  0  0  0
   -2.6401   -3.1891    0.0000 C   0  0  0  0  0  0  0  0  0  0  0  0
   -3.7548   -2.1855    0.0000 O   0  0  0  0  0  0  0  0  0  0  0  0
   -1.2135   -2.7256    0.0000 C   0  0  0  0  0  0  0  0  0  0  0  0
   -0.0000   -3.6073    0.0000 C   0  0  0  0  0  0  0  0  0  0  0  0
    1.2135   -2.7256    0.0000 N   0  0  0  0  0  0  0  0  0  0  0  0
    0.7500   -1.2990    0.0000 N   0  0  0  0  0  0  0  0  0  0  0  0
    1.5000    0.0000    0.0000 C   0  0  0  0  0  0  0  0  0  0  0  0
    0.7500    1.2990    0.0000 C   0  0  0  0  0  0  0  0  0  0  0  0
   -0.7500    1.2990    0.0000 C   0  0  0  0  0  0  0  0  0  0  0  0
   -1.5000    2.5981    0.0000 N   0  0  0  0  0  0  0  0  0  0  0  0
   -2.9918    2.7549    0.0000 C   0  0  0  0  0  0  0  0  0  0  0  0
   -3.3037    4.2221    0.0000 C   0  0  0  0  0  0  0  0  0  0  0  0
   -2.0046    4.9721    0.0000 C   0  0  0  0  0  0  0  0  0  0  0  0
   -0.8899    3.9684    0.0000 C   0  0  0  0  0  0  0  0  0  0  0  0
    0.5773    4.2803    0.0000 C   0  0  0  0  0  0  0  0  0  0  0  0
    1.5810    3.1655    0.0000 C   0  0  0  0  0  0  0  0  0  0  0  0
    3.0482    3.4774    0.0000 C   0  0  0  0  0  0  0  0  0  0  0  0
    4.0519    2.3627    0.0000 F   0  0  0  0  0  0  0  0  0  0  0  0
    3.5118    4.9040    0.0000 C   0  0  0  0  0  0  0  0  0  0  0  0
    2.5081    6.0187    0.0000 N   0  0  0  0  0  0  0  0  0  0  0  0
    1.0409    5.7068    0.0000 C   0  0  0  0  0  0  0  0  0  0  0  0
    0.0372    6.8216    0.0000 O   0  0  0  0  0  0  0  0  0  0  0  0
   -1.5000    0.0000    0.0000 N   0  0  0  0  0  0  0  0  0  0  0  0
   -0.7500   -1.2990    0.0000 C   0  0  0  0  0  0  0  0  0  0  0  0
  1  2  1  0
  2  3  1  0
  2  4  1  0
  2  5  1  0
  5  6  1  0
  6  7  2  0
  6  8  1  0
  8  9  1  0
  9 10  2  0
 10 11  1  0
 11 12  1  0
 12 13  2  0
 13 14  1  0
 14 15  1  0
 15 16  1  0
 16 17  1  0
 17 18  1  0
 18 19  1  0
 19 20  1  6
 20 21  2  0
 21 22  1  0
 22 23  1  0
 22 24  2  0
 24 25  1  0
 25 26  1  0
 26 27  2  0
 14 28  2  0
 28 29  1  0
 29  8  2  0
 29 11  1  0
 19 15  1  0
 26 20  1  0
M  END
>  <Compound_ID>  (485) 
CHEMBL3676069

>  <Molecule Name>  (485) 
nan

>  <Molecular Weight>  (485) 
398.44

>  <AlogP>  (485) 
2.43

>  <Smiles>  (485) 
CC(C)(C)NC(=O)c1cnn2ccc(N3CCC[C@@H]3c3cc(F)c[nH]c3=O)nc12

>  <Standard Type>  (485) 
IC50

>  <Standard Relation>  (485) 
'='

>  <Standard Units>  (485) 
nM

>  <Standard Value>  (485) 
19.3

>  <Assay ChEMBL ID>  (485) 
CHEMBL3887070

>  <Assay Description>  (485) 
ELISA Assay: An enzyme-linked immunosorbant assay (ELISA) was used to assess TrkA kinase activity in the presence of inhibitors. Immulon 4HBX 384-well microtiter plates (Thermo part #8755) were coated with a 0.025 mg/mL solution of poly (Glu, Ala, Tyr; 6:3:1; Sigma P3899). Various concentrations of test compound, 2.5 nM TrkA (Invitrogen Corp., histidine-tagged recombinant human TrkA, cytoplasmic domain), and 500 uM ATP were incubated for 25 minutes at ambient temperature in the coated plates while shaking The assay buffer consisted of 25 mM MOPS pH 7.5, 0.005% (v/v) Triton X-100 and 5 mM MgCl2. The reaction mixture was removed from the plate by washing with PBS containing 0.1% (v/v) Tween 20. The phosphorylated reaction product was detected using 0.2 ug/mL of a phosphotyrosine specific monoclonal antibody (clone PY20) conjugated to horseradish peroxidase in conjunction with the TMB Peroxidase Substrate System (KPL).

>  <BAO Format ID>  (485) 
BAO_0000357

>  <BAO Label>  (485) 
single protein format

>  <Assay Organism>  (485) 
None

>  <Target ChEMBL ID>  (485) 
CHEMBL2815

>  <Target Name>  (485) 
Nerve growth factor receptor Trk-A

>  <Target Organism>  (485) 
Homo sapiens

>  <Target Type>  (485) 
SINGLE PROTEIN

>  <Document ChEMBL ID>  (485) 
CHEMBL3638907

>  <Source Description>  (485) 
BindingDB Database

>  <Document Journal>  (485) 
nan

>  <Document Year>  (485) 
2014.0

>  <Active>  (485) 
1.0

>  <bits>  (485) 
<rdkit.DataStructs.cDataStructs.ExplicitBitVect object at 0x00000159F5470EB0>

>  <Group>  (485) 
G2

$$$$

     RDKit          2D

 38 42  0  0  0  0  0  0  0  0999 V2000
   -2.9520   -4.6564    0.0000 C   0  0  0  0  0  0  0  0  0  0  0  0
   -2.6401   -3.1891    0.0000 C   0  0  0  0  0  0  0  0  0  0  0  0
   -3.7548   -2.1855    0.0000 C   0  0  0  0  0  0  0  0  0  0  0  0
   -1.2135   -2.7256    0.0000 N   0  0  0  0  0  0  0  0  0  0  0  0
   -0.0000   -3.6073    0.0000 C   0  0  0  0  0  0  0  0  0  0  0  0
    1.2135   -2.7256    0.0000 C   0  0  0  0  0  0  0  0  0  0  0  0
    2.6401   -3.1891    0.0000 C   0  0  0  0  0  0  0  0  0  0  0  0
    3.7548   -2.1855    0.0000 O   0  0  0  0  0  0  0  0  0  0  0  0
    2.9520   -4.6564    0.0000 C   0  0  0  0  0  0  0  0  0  0  0  0
    1.8373   -5.6601    0.0000 C   0  0  0  0  0  0  0  0  0  0  0  0
    2.1491   -7.1273    0.0000 N   0  0  0  0  0  0  0  0  0  0  0  0
    3.5757   -7.5908    0.0000 C   0  0  0  0  0  0  0  0  0  0  0  0
    4.6904   -6.5871    0.0000 C   0  0  0  0  0  0  0  0  0  0  0  0
    6.1170   -7.0506    0.0000 N   0  0  0  0  0  0  0  0  0  0  0  0
    6.4289   -8.5179    0.0000 C   0  0  0  0  0  0  0  0  0  0  0  0
    5.3142   -9.5216    0.0000 O   0  0  0  0  0  0  0  0  0  0  0  0
    7.8555   -8.9814    0.0000 C   0  0  0  0  0  0  0  0  0  0  0  0
    8.1673  -10.4486    0.0000 C   0  0  0  0  0  0  0  0  0  0  0  0
    7.0526  -11.4523    0.0000 C   0  0  0  0  0  0  0  0  0  0  0  0
    7.3645  -12.9195    0.0000 C   0  0  0  0  0  0  0  0  0  0  0  0
    8.7911  -13.3831    0.0000 C   0  0  0  0  0  0  0  0  0  0  0  0
    9.9058  -12.3794    0.0000 C   0  0  0  0  0  0  0  0  0  0  0  0
   11.3324  -12.8429    0.0000 C   0  0  0  0  0  0  0  0  0  0  0  0
   12.4471  -11.8392    0.0000 O   0  0  0  0  0  0  0  0  0  0  0  0
   11.6442  -14.3101    0.0000 C   0  0  0  0  0  0  0  0  0  0  0  0
   10.5295  -15.3138    0.0000 C   0  0  0  0  0  0  0  0  0  0  0  0
   10.8414  -16.7810    0.0000 C   0  0  0  0  0  0  0  0  0  0  0  0
   12.2680  -17.2445    0.0000 C   0  0  0  0  0  0  0  0  0  0  0  0
   13.3827  -16.2409    0.0000 C   0  0  0  0  0  0  0  0  0  0  0  0
   13.0708  -14.7736    0.0000 C   0  0  0  0  0  0  0  0  0  0  0  0
    9.5939  -10.9121    0.0000 C   0  0  0  0  0  0  0  0  0  0  0  0
    4.3786   -5.1199    0.0000 C   0  0  0  0  0  0  0  0  0  0  0  0
    0.7500   -1.2990    0.0000 C   0  0  0  0  0  0  0  0  0  0  0  0
    1.5000    0.0000    0.0000 C   0  0  0  0  0  0  0  0  0  0  0  0
    0.7500    1.2990    0.0000 N   0  0  0  0  0  0  0  0  0  0  0  0
   -0.7500    1.2990    0.0000 C   0  0  0  0  0  0  0  0  0  0  0  0
   -1.5000    0.0000    0.0000 N   0  0  0  0  0  0  0  0  0  0  0  0
   -0.7500   -1.2990    0.0000 C   0  0  0  0  0  0  0  0  0  0  0  0
  1  2  1  0
  2  3  1  0
  2  4  1  0
  4  5  1  0
  5  6  2  0
  6  7  1  0
  7  8  2  0
  7  9  1  0
  9 10  2  0
 10 11  1  0
 11 12  2  0
 12 13  1  0
 13 14  1  0
 14 15  1  0
 15 16  2  0
 15 17  1  0
 17 18  1  0
 18 19  2  0
 19 20  1  0
 20 21  2  0
 21 22  1  0
 22 23  1  0
 23 24  2  0
 23 25  1  0
 25 26  2  0
 26 27  1  0
 27 28  2  0
 28 29  1  0
 29 30  2  0
 22 31  2  0
 13 32  2  0
  6 33  1  0
 33 34  2  0
 34 35  1  0
 35 36  2  0
 36 37  1  0
 37 38  2  0
 38  4  1  0
 32  9  1  0
 38 33  1  0
 31 18  1  0
 30 25  1  0
M  END
>  <Compound_ID>  (486) 
CHEMBL3666287

>  <Molecule Name>  (486) 
nan

>  <Molecular Weight>  (486) 
503.56

>  <AlogP>  (486) 
5.05

>  <Smiles>  (486) 
CC(C)n1cc(C(=O)c2cncc(NC(=O)Cc3cccc(C(=O)c4ccccc4)c3)c2)c2cncnc21

>  <Standard Type>  (486) 
IC50

>  <Standard Relation>  (486) 
'='

>  <Standard Units>  (486) 
nM

>  <Standard Value>  (486) 
43.1

>  <Assay ChEMBL ID>  (486) 
CHEMBL3887033

>  <Assay Description>  (486) 
Enzyme Assay: Isolated TRK Enzyme assays use the HTRF KinEASE-TK kit (Cisbio Cat# 62TK0PEJ) with recombinant His-tagged cytoplasmic domains of each TRK receptor sourced from Invitrogen (see table below). This activity-assay measures the phosphorylation of tyrosine residues within a substrate from the HTRF kit which has been validated by Cisbio for a variety of tyrosine kinases including the TRK receptors. Assay details: Target:TRKA; Invitrogen Cat# PV3144; Amino acids:aa 441-796; FAC enzyme:4nM; FAC ATP:40uM; Assay Reaction Time:35min.

>  <BAO Format ID>  (486) 
BAO_0000357

>  <BAO Label>  (486) 
single protein format

>  <Assay Organism>  (486) 
None

>  <Target ChEMBL ID>  (486) 
CHEMBL2815

>  <Target Name>  (486) 
Nerve growth factor receptor Trk-A

>  <Target Organism>  (486) 
Homo sapiens

>  <Target Type>  (486) 
SINGLE PROTEIN

>  <Document ChEMBL ID>  (486) 
CHEMBL3639348

>  <Source Description>  (486) 
BindingDB Database

>  <Document Journal>  (486) 
nan

>  <Document Year>  (486) 
2014.0

>  <Active>  (486) 
1.0

>  <bits>  (486) 
<rdkit.DataStructs.cDataStructs.ExplicitBitVect object at 0x00000159F5473300>

>  <Group>  (486) 
G2

$$$$

     RDKit          2D

 38 42  0  0  0  0  0  0  0  0999 V2000
  -11.6631   -4.5437    0.0000 C   0  0  0  0  0  0  0  0  0  0  0  0
  -11.1996   -5.9703    0.0000 C   0  0  0  0  0  0  0  0  0  0  0  0
  -10.7361   -7.3969    0.0000 C   0  0  0  0  0  0  0  0  0  0  0  0
  -12.6262   -6.4338    0.0000 C   0  0  0  0  0  0  0  0  0  0  0  0
   -9.7730   -5.5068    0.0000 O   0  0  0  0  0  0  0  0  0  0  0  0
   -8.6583   -6.5105    0.0000 C   0  0  0  0  0  0  0  0  0  0  0  0
   -8.9702   -7.9777    0.0000 O   0  0  0  0  0  0  0  0  0  0  0  0
   -7.2317   -6.0469    0.0000 N   0  0  0  0  0  0  0  0  0  0  0  0
   -6.9199   -4.5797    0.0000 C   0  0  0  0  0  0  0  0  0  0  0  0
   -5.4933   -4.1162    0.0000 C   0  0  0  0  0  0  0  0  0  0  0  0
   -4.3786   -5.1199    0.0000 N   0  0  0  0  0  0  0  0  0  0  0  0
   -2.9520   -4.6564    0.0000 C   0  0  0  0  0  0  0  0  0  0  0  0
   -1.8373   -5.6601    0.0000 O   0  0  0  0  0  0  0  0  0  0  0  0
   -2.6401   -3.1891    0.0000 N   0  0  0  0  0  0  0  0  0  0  0  0
   -1.2135   -2.7256    0.0000 C   0  0  0  0  0  0  0  0  0  0  0  0
   -0.0000   -3.6073    0.0000 C   0  0  0  0  0  0  0  0  0  0  0  0
    1.2135   -2.7256    0.0000 N   0  0  0  0  0  0  0  0  0  0  0  0
    0.7500   -1.2990    0.0000 C   0  0  0  0  0  0  0  0  0  0  0  0
    1.5000    0.0000    0.0000 C   0  0  0  0  0  0  0  0  0  0  0  0
    0.7500    1.2990    0.0000 C   0  0  0  0  0  0  0  0  0  0  0  0
   -0.7500    1.2990    0.0000 C   0  0  0  0  0  0  0  0  0  0  0  0
   -1.5000    2.5981    0.0000 N   0  0  0  0  0  0  0  0  0  0  0  0
   -2.9918    2.7549    0.0000 C   0  0  0  0  0  0  0  0  0  0  0  0
   -3.3037    4.2221    0.0000 C   0  0  0  0  0  0  0  0  0  0  0  0
   -2.0046    4.9721    0.0000 C   0  0  0  0  0  0  0  0  0  0  0  0
   -0.8899    3.9684    0.0000 C   0  0  0  0  0  0  0  0  0  0  0  0
    0.5773    4.2803    0.0000 C   0  0  0  0  0  0  0  0  0  0  0  0
    1.5810    3.1655    0.0000 C   0  0  0  0  0  0  0  0  0  0  0  0
    3.0482    3.4774    0.0000 C   0  0  0  0  0  0  0  0  0  0  0  0
    4.0519    2.3627    0.0000 F   0  0  0  0  0  0  0  0  0  0  0  0
    3.5118    4.9040    0.0000 C   0  0  0  0  0  0  0  0  0  0  0  0
    2.5081    6.0187    0.0000 C   0  0  0  0  0  0  0  0  0  0  0  0
    1.0409    5.7068    0.0000 C   0  0  0  0  0  0  0  0  0  0  0  0
    0.0372    6.8216    0.0000 F   0  0  0  0  0  0  0  0  0  0  0  0
   -1.5000    0.0000    0.0000 N   0  0  0  0  0  0  0  0  0  0  0  0
   -0.7500   -1.2990    0.0000 N   0  0  0  0  0  0  0  0  0  0  0  0
   -4.6904   -6.5871    0.0000 C   0  0  0  0  0  0  0  0  0  0  0  0
   -6.1170   -7.0506    0.0000 C   0  0  0  0  0  0  0  0  0  0  0  0
  1  2  1  0
  2  3  1  0
  2  4  1  0
  2  5  1  0
  5  6  1  0
  6  7  2  0
  6  8  1  0
  8  9  1  0
  9 10  1  0
 10 11  1  0
 11 12  1  0
 12 13  2  0
 12 14  1  0
 14 15  1  0
 15 16  2  0
 16 17  1  0
 17 18  2  0
 18 19  1  0
 19 20  2  0
 20 21  1  0
 21 22  1  0
 22 23  1  0
 23 24  1  0
 24 25  1  0
 25 26  1  0
 26 27  1  6
 27 28  2  0
 28 29  1  0
 29 30  1  0
 29 31  2  0
 31 32  1  0
 32 33  2  0
 33 34  1  0
 21 35  2  0
 35 36  1  0
 11 37  1  0
 37 38  1  0
 38  8  1  0
 36 15  1  0
 36 18  1  0
 26 22  1  0
 33 27  1  0
M  END
>  <Compound_ID>  (487) 
CHEMBL4110587

>  <Molecule Name>  (487) 
nan

>  <Molecular Weight>  (487) 
527.58

>  <AlogP>  (487) 
4.43

>  <Smiles>  (487) 
CC(C)(C)OC(=O)N1CCN(C(=O)Nc2cnc3ccc(N4CCC[C@@H]4c4cc(F)ccc4F)nn23)CC1

>  <Standard Type>  (487) 
IC50

>  <Standard Relation>  (487) 
'='

>  <Standard Units>  (487) 
nM

>  <Standard Value>  (487) 
33.6

>  <Assay ChEMBL ID>  (487) 
CHEMBL3887826

>  <Assay Description>  (487) 
ELISA Assay: An enzyme-linked immunosorbant assay (ELISA) was used to assess TrkA kinase activity in the presence of inhibitors. Immulon 4HBX 384-well microtiter plates (Thermo part #8755) were coated with a 0.025 mg/mL solution of poly (Glu, Ala, Tyr; 6:3:1; Sigma P3899). Various concentrations of test compound, 2.5 nM TrkA (Invitrogen Corp., histidine-tagged recombinant human TrkA, cytoplasmic domain), and 500 uM ATP were incubated for 25 minutes at ambient temperature in the coated plates while shaking. The assay buffer consisted of 25 mM MOPS pH 7.5, 0.005% (v/v) Triton X-100 and 5 mM MgCl2. The reaction mixture was removed from the plate by washing with PBS containing 0.1% (v/v) Tween 20. The phosphorylated reaction product was detected using 0.2 ug/mL of a phosphotyrosine specific monoclonal antibody (clone PY20) conjugated to horseradish peroxidase in conjunction with the TMB Peroxidase Substrate System (KPL).

>  <BAO Format ID>  (487) 
BAO_0000357

>  <BAO Label>  (487) 
single protein format

>  <Assay Organism>  (487) 
None

>  <Target ChEMBL ID>  (487) 
CHEMBL2815

>  <Target Name>  (487) 
Nerve growth factor receptor Trk-A

>  <Target Organism>  (487) 
Homo sapiens

>  <Target Type>  (487) 
SINGLE PROTEIN

>  <Document ChEMBL ID>  (487) 
CHEMBL3886465

>  <Source Description>  (487) 
BindingDB Database

>  <Document Journal>  (487) 
nan

>  <Document Year>  (487) 
2016.0

>  <Active>  (487) 
1.0

>  <bits>  (487) 
<rdkit.DataStructs.cDataStructs.ExplicitBitVect object at 0x00000159F5471460>

>  <Group>  (487) 
G2

$$$$

     RDKit          2D

 34 38  0  0  0  0  0  0  0  0999 V2000
   -3.7548   -2.1855    0.0000 O   0  0  0  0  0  0  0  0  0  0  0  0
   -2.6401   -3.1891    0.0000 C   0  0  0  0  0  0  0  0  0  0  0  0
   -2.9520   -4.6564    0.0000 N   0  0  0  0  0  0  0  0  0  0  0  0
   -4.3786   -5.1199    0.0000 C   0  0  0  0  0  0  0  0  0  0  0  0
   -4.6904   -6.5871    0.0000 C   0  0  0  0  0  0  0  0  0  0  0  0
   -6.1170   -7.0506    0.0000 N   0  0  0  0  0  0  0  0  0  0  0  0
   -7.2317   -6.0469    0.0000 C   0  0  0  0  0  0  0  0  0  0  0  0
   -8.6583   -6.5105    0.0000 C   0  0  0  0  0  0  0  0  0  0  0  0
   -8.9702   -7.9777    0.0000 O   0  0  0  0  0  0  0  0  0  0  0  0
   -7.8555   -8.9814    0.0000 C   0  0  0  0  0  0  0  0  0  0  0  0
   -6.4289   -8.5179    0.0000 C   0  0  0  0  0  0  0  0  0  0  0  0
   -1.2135   -2.7256    0.0000 C   0  0  0  0  0  0  0  0  0  0  0  0
   -0.0000   -3.6073    0.0000 C   0  0  0  0  0  0  0  0  0  0  0  0
    1.2135   -2.7256    0.0000 N   0  0  0  0  0  0  0  0  0  0  0  0
    0.7500   -1.2990    0.0000 N   0  0  0  0  0  0  0  0  0  0  0  0
    1.5000    0.0000    0.0000 C   0  0  0  0  0  0  0  0  0  0  0  0
    0.7500    1.2990    0.0000 C   0  0  0  0  0  0  0  0  0  0  0  0
   -0.7500    1.2990    0.0000 C   0  0  0  0  0  0  0  0  0  0  0  0
   -1.5000    2.5981    0.0000 N   0  0  0  0  0  0  0  0  0  0  0  0
   -2.9918    2.7549    0.0000 C   0  0  0  0  0  0  0  0  0  0  0  0
   -3.3037    4.2221    0.0000 C   0  0  0  0  0  0  0  0  0  0  0  0
   -2.0046    4.9721    0.0000 C   0  0  0  0  0  0  0  0  0  0  0  0
   -0.8899    3.9684    0.0000 C   0  0  0  0  0  0  0  0  0  0  0  0
    0.5773    4.2803    0.0000 C   0  0  0  0  0  0  0  0  0  0  0  0
    1.5810    3.1655    0.0000 C   0  0  0  0  0  0  0  0  0  0  0  0
    3.0482    3.4774    0.0000 C   0  0  0  0  0  0  0  0  0  0  0  0
    4.0519    2.3627    0.0000 F   0  0  0  0  0  0  0  0  0  0  0  0
    3.5118    4.9040    0.0000 C   0  0  0  0  0  0  0  0  0  0  0  0
    2.5081    6.0187    0.0000 C   0  0  0  0  0  0  0  0  0  0  0  0
    1.0409    5.7068    0.0000 C   0  0  0  0  0  0  0  0  0  0  0  0
    0.0372    6.8216    0.0000 C   0  0  0  0  0  0  0  0  0  0  0  0
    0.5007    8.2481    0.0000 O   0  0  0  0  0  0  0  0  0  0  0  0
   -1.5000    0.0000    0.0000 N   0  0  0  0  0  0  0  0  0  0  0  0
   -0.7500   -1.2990    0.0000 C   0  0  0  0  0  0  0  0  0  0  0  0
  1  2  2  0
  2  3  1  0
  3  4  1  0
  4  5  1  0
  5  6  1  0
  6  7  1  0
  7  8  1  0
  8  9  1  0
  9 10  1  0
 10 11  1  0
  2 12  1  0
 12 13  1  0
 13 14  2  0
 14 15  1  0
 15 16  1  0
 16 17  2  0
 17 18  1  0
 18 19  1  0
 19 20  1  0
 20 21  1  0
 21 22  1  0
 22 23  1  0
 23 24  1  0
 24 25  2  0
 25 26  1  0
 26 27  1  0
 26 28  2  0
 28 29  1  0
 29 30  2  0
 30 31  1  0
 31 32  1  0
 18 33  2  0
 33 34  1  0
 11  6  1  0
 34 12  2  0
 34 15  1  0
 23 19  1  0
 30 24  1  0
M  END
>  <Compound_ID>  (488) 
CHEMBL3675931

>  <Molecule Name>  (488) 
nan

>  <Molecular Weight>  (488) 
468.53

>  <AlogP>  (488) 
1.76

>  <Smiles>  (488) 
O=C(NCCN1CCOCC1)c1cnn2ccc(N3CCCC3c3cc(F)ccc3CO)nc12

>  <Standard Type>  (488) 
IC50

>  <Standard Relation>  (488) 
'='

>  <Standard Units>  (488) 
nM

>  <Standard Value>  (488) 
2.25

>  <Assay ChEMBL ID>  (488) 
CHEMBL3887070

>  <Assay Description>  (488) 
ELISA Assay: An enzyme-linked immunosorbant assay (ELISA) was used to assess TrkA kinase activity in the presence of inhibitors. Immulon 4HBX 384-well microtiter plates (Thermo part #8755) were coated with a 0.025 mg/mL solution of poly (Glu, Ala, Tyr; 6:3:1; Sigma P3899). Various concentrations of test compound, 2.5 nM TrkA (Invitrogen Corp., histidine-tagged recombinant human TrkA, cytoplasmic domain), and 500 uM ATP were incubated for 25 minutes at ambient temperature in the coated plates while shaking The assay buffer consisted of 25 mM MOPS pH 7.5, 0.005% (v/v) Triton X-100 and 5 mM MgCl2. The reaction mixture was removed from the plate by washing with PBS containing 0.1% (v/v) Tween 20. The phosphorylated reaction product was detected using 0.2 ug/mL of a phosphotyrosine specific monoclonal antibody (clone PY20) conjugated to horseradish peroxidase in conjunction with the TMB Peroxidase Substrate System (KPL).

>  <BAO Format ID>  (488) 
BAO_0000357

>  <BAO Label>  (488) 
single protein format

>  <Assay Organism>  (488) 
None

>  <Target ChEMBL ID>  (488) 
CHEMBL2815

>  <Target Name>  (488) 
Nerve growth factor receptor Trk-A

>  <Target Organism>  (488) 
Homo sapiens

>  <Target Type>  (488) 
SINGLE PROTEIN

>  <Document ChEMBL ID>  (488) 
CHEMBL3638907

>  <Source Description>  (488) 
BindingDB Database

>  <Document Journal>  (488) 
nan

>  <Document Year>  (488) 
2014.0

>  <Active>  (488) 
1.0

>  <bits>  (488) 
<rdkit.DataStructs.cDataStructs.ExplicitBitVect object at 0x00000159F5470890>

>  <Group>  (488) 
G2

$$$$

     RDKit          2D

 34 38  0  0  0  0  0  0  0  0999 V2000
   -3.7548   -2.1855    0.0000 O   0  0  0  0  0  0  0  0  0  0  0  0
   -2.6401   -3.1891    0.0000 C   0  0  0  0  0  0  0  0  0  0  0  0
   -2.9520   -4.6564    0.0000 N   0  0  0  0  0  0  0  0  0  0  0  0
   -4.3786   -5.1199    0.0000 C   0  0  0  0  0  0  0  0  0  0  0  0
   -4.6904   -6.5871    0.0000 C   0  0  0  0  0  0  0  0  0  0  0  0
   -6.1170   -7.0506    0.0000 N   0  0  0  0  0  0  0  0  0  0  0  0
   -7.2317   -6.0469    0.0000 C   0  0  0  0  0  0  0  0  0  0  0  0
   -8.6583   -6.5105    0.0000 C   0  0  0  0  0  0  0  0  0  0  0  0
   -8.9702   -7.9777    0.0000 C   0  0  0  0  0  0  0  0  0  0  0  0
  -10.3968   -8.4412    0.0000 O   0  0  0  0  0  0  0  0  0  0  0  0
   -7.8555   -8.9814    0.0000 C   0  0  0  0  0  0  0  0  0  0  0  0
   -6.4289   -8.5179    0.0000 C   0  0  0  0  0  0  0  0  0  0  0  0
   -1.2135   -2.7256    0.0000 C   0  0  0  0  0  0  0  0  0  0  0  0
   -0.0000   -3.6073    0.0000 C   0  0  0  0  0  0  0  0  0  0  0  0
    1.2135   -2.7256    0.0000 N   0  0  0  0  0  0  0  0  0  0  0  0
    0.7500   -1.2990    0.0000 N   0  0  0  0  0  0  0  0  0  0  0  0
    1.5000    0.0000    0.0000 C   0  0  0  0  0  0  0  0  0  0  0  0
    0.7500    1.2990    0.0000 C   0  0  0  0  0  0  0  0  0  0  0  0
   -0.7500    1.2990    0.0000 C   0  0  0  0  0  0  0  0  0  0  0  0
   -1.5000    2.5981    0.0000 N   0  0  0  0  0  0  0  0  0  0  0  0
   -2.9918    2.7549    0.0000 C   0  0  0  0  0  0  0  0  0  0  0  0
   -3.3037    4.2221    0.0000 C   0  0  0  0  0  0  0  0  0  0  0  0
   -2.0046    4.9721    0.0000 C   0  0  0  0  0  0  0  0  0  0  0  0
   -0.8899    3.9684    0.0000 C   0  0  0  0  0  0  0  0  0  0  0  0
    0.5773    4.2803    0.0000 C   0  0  0  0  0  0  0  0  0  0  0  0
    1.5810    3.1655    0.0000 C   0  0  0  0  0  0  0  0  0  0  0  0
    3.0482    3.4774    0.0000 C   0  0  0  0  0  0  0  0  0  0  0  0
    4.0519    2.3627    0.0000 F   0  0  0  0  0  0  0  0  0  0  0  0
    3.5118    4.9040    0.0000 C   0  0  0  0  0  0  0  0  0  0  0  0
    2.5081    6.0187    0.0000 C   0  0  0  0  0  0  0  0  0  0  0  0
    1.0409    5.7068    0.0000 C   0  0  0  0  0  0  0  0  0  0  0  0
    0.0372    6.8216    0.0000 F   0  0  0  0  0  0  0  0  0  0  0  0
   -1.5000    0.0000    0.0000 N   0  0  0  0  0  0  0  0  0  0  0  0
   -0.7500   -1.2990    0.0000 C   0  0  0  0  0  0  0  0  0  0  0  0
  1  2  2  0
  2  3  1  0
  3  4  1  0
  4  5  1  0
  5  6  1  0
  6  7  1  0
  7  8  1  0
  8  9  1  0
  9 10  1  0
  9 11  1  0
 11 12  1  0
  2 13  1  0
 13 14  1  0
 14 15  2  0
 15 16  1  0
 16 17  1  0
 17 18  2  0
 18 19  1  0
 19 20  1  0
 20 21  1  0
 21 22  1  0
 22 23  1  0
 23 24  1  0
 24 25  1  6
 25 26  2  0
 26 27  1  0
 27 28  1  0
 27 29  2  0
 29 30  1  0
 30 31  2  0
 31 32  1  0
 19 33  2  0
 33 34  1  0
 12  6  1  0
 34 13  2  0
 34 16  1  0
 24 20  1  0
 31 25  1  0
M  END
>  <Compound_ID>  (489) 
CHEMBL3676039

>  <Molecule Name>  (489) 
nan

>  <Molecular Weight>  (489) 
470.52

>  <AlogP>  (489) 
2.54

>  <Smiles>  (489) 
O=C(NCCN1CCC(O)CC1)c1cnn2ccc(N3CCC[C@@H]3c3cc(F)ccc3F)nc12

>  <Standard Type>  (489) 
IC50

>  <Standard Relation>  (489) 
'='

>  <Standard Units>  (489) 
nM

>  <Standard Value>  (489) 
11.6

>  <Assay ChEMBL ID>  (489) 
CHEMBL3887070

>  <Assay Description>  (489) 
ELISA Assay: An enzyme-linked immunosorbant assay (ELISA) was used to assess TrkA kinase activity in the presence of inhibitors. Immulon 4HBX 384-well microtiter plates (Thermo part #8755) were coated with a 0.025 mg/mL solution of poly (Glu, Ala, Tyr; 6:3:1; Sigma P3899). Various concentrations of test compound, 2.5 nM TrkA (Invitrogen Corp., histidine-tagged recombinant human TrkA, cytoplasmic domain), and 500 uM ATP were incubated for 25 minutes at ambient temperature in the coated plates while shaking The assay buffer consisted of 25 mM MOPS pH 7.5, 0.005% (v/v) Triton X-100 and 5 mM MgCl2. The reaction mixture was removed from the plate by washing with PBS containing 0.1% (v/v) Tween 20. The phosphorylated reaction product was detected using 0.2 ug/mL of a phosphotyrosine specific monoclonal antibody (clone PY20) conjugated to horseradish peroxidase in conjunction with the TMB Peroxidase Substrate System (KPL).

>  <BAO Format ID>  (489) 
BAO_0000357

>  <BAO Label>  (489) 
single protein format

>  <Assay Organism>  (489) 
None

>  <Target ChEMBL ID>  (489) 
CHEMBL2815

>  <Target Name>  (489) 
Nerve growth factor receptor Trk-A

>  <Target Organism>  (489) 
Homo sapiens

>  <Target Type>  (489) 
SINGLE PROTEIN

>  <Document ChEMBL ID>  (489) 
CHEMBL3638907

>  <Source Description>  (489) 
BindingDB Database

>  <Document Journal>  (489) 
nan

>  <Document Year>  (489) 
2014.0

>  <Active>  (489) 
1.0

>  <bits>  (489) 
<rdkit.DataStructs.cDataStructs.ExplicitBitVect object at 0x00000159F54721F0>

>  <Group>  (489) 
G2

$$$$

     RDKit          2D

 29 32  0  0  0  0  0  0  0  0999 V2000
   -3.9150   -6.5465    0.0000 C   0  0  0  0  0  0  0  0  0  0  0  0
   -4.3786   -5.1199    0.0000 C   0  0  0  0  0  0  0  0  0  0  0  0
   -4.8421   -3.6933    0.0000 C   0  0  0  0  0  0  0  0  0  0  0  0
   -5.8051   -5.5834    0.0000 C   0  0  0  0  0  0  0  0  0  0  0  0
   -2.9520   -4.6564    0.0000 N   0  0  0  0  0  0  0  0  0  0  0  0
   -2.6401   -3.1891    0.0000 C   0  0  0  0  0  0  0  0  0  0  0  0
   -3.7548   -2.1855    0.0000 O   0  0  0  0  0  0  0  0  0  0  0  0
   -1.2135   -2.7256    0.0000 C   0  0  0  0  0  0  0  0  0  0  0  0
   -0.0000   -3.6073    0.0000 C   0  0  0  0  0  0  0  0  0  0  0  0
    1.2135   -2.7256    0.0000 N   0  0  0  0  0  0  0  0  0  0  0  0
    0.7500   -1.2990    0.0000 N   0  0  0  0  0  0  0  0  0  0  0  0
    1.5000    0.0000    0.0000 C   0  0  0  0  0  0  0  0  0  0  0  0
    0.7500    1.2990    0.0000 C   0  0  0  0  0  0  0  0  0  0  0  0
   -0.7500    1.2990    0.0000 C   0  0  0  0  0  0  0  0  0  0  0  0
   -1.5000    2.5981    0.0000 N   0  0  0  0  0  0  0  0  0  0  0  0
   -2.9918    2.7549    0.0000 C   0  0  0  0  0  0  0  0  0  0  0  0
   -3.3037    4.2221    0.0000 C   0  0  0  0  0  0  0  0  0  0  0  0
   -4.6740    4.8322    0.0000 O   0  0  0  0  0  0  0  0  0  0  0  0
   -2.0046    4.9721    0.0000 C   0  0  0  0  0  0  0  0  0  0  0  0
   -0.8899    3.9684    0.0000 C   0  0  0  0  0  0  0  0  0  0  0  0
    0.5773    4.2803    0.0000 C   0  0  0  0  0  0  0  0  0  0  0  0
    1.5810    3.1655    0.0000 C   0  0  0  0  0  0  0  0  0  0  0  0
    3.0482    3.4774    0.0000 C   0  0  0  0  0  0  0  0  0  0  0  0
    3.5118    4.9040    0.0000 C   0  0  0  0  0  0  0  0  0  0  0  0
    2.5081    6.0187    0.0000 C   0  0  0  0  0  0  0  0  0  0  0  0
    2.9716    7.4453    0.0000 F   0  0  0  0  0  0  0  0  0  0  0  0
    1.0409    5.7068    0.0000 C   0  0  0  0  0  0  0  0  0  0  0  0
   -1.5000    0.0000    0.0000 N   0  0  0  0  0  0  0  0  0  0  0  0
   -0.7500   -1.2990    0.0000 C   0  0  0  0  0  0  0  0  0  0  0  0
  1  2  1  0
  2  3  1  0
  2  4  1  0
  2  5  1  0
  5  6  1  0
  6  7  2  0
  6  8  1  0
  8  9  1  0
  9 10  2  0
 10 11  1  0
 11 12  1  0
 12 13  2  0
 13 14  1  0
 14 15  1  0
 15 16  1  0
 16 17  1  0
 17 18  1  6
 17 19  1  0
 19 20  1  0
 20 21  1  6
 21 22  2  0
 22 23  1  0
 23 24  2  0
 24 25  1  0
 25 26  1  0
 25 27  2  0
 14 28  2  0
 28 29  1  0
 29  8  2  0
 29 11  1  0
 20 15  1  0
 27 21  1  0
M  END
>  <Compound_ID>  (490) 
CHEMBL3675920

>  <Molecule Name>  (490) 
nan

>  <Molecular Weight>  (490) 
397.45

>  <AlogP>  (490) 
2.71

>  <Smiles>  (490) 
CC(C)(C)NC(=O)c1cnn2ccc(N3C[C@H](O)C[C@@H]3c3cccc(F)c3)nc12

>  <Standard Type>  (490) 
IC50

>  <Standard Relation>  (490) 
'='

>  <Standard Units>  (490) 
nM

>  <Standard Value>  (490) 
48.3

>  <Assay ChEMBL ID>  (490) 
CHEMBL3887070

>  <Assay Description>  (490) 
ELISA Assay: An enzyme-linked immunosorbant assay (ELISA) was used to assess TrkA kinase activity in the presence of inhibitors. Immulon 4HBX 384-well microtiter plates (Thermo part #8755) were coated with a 0.025 mg/mL solution of poly (Glu, Ala, Tyr; 6:3:1; Sigma P3899). Various concentrations of test compound, 2.5 nM TrkA (Invitrogen Corp., histidine-tagged recombinant human TrkA, cytoplasmic domain), and 500 uM ATP were incubated for 25 minutes at ambient temperature in the coated plates while shaking The assay buffer consisted of 25 mM MOPS pH 7.5, 0.005% (v/v) Triton X-100 and 5 mM MgCl2. The reaction mixture was removed from the plate by washing with PBS containing 0.1% (v/v) Tween 20. The phosphorylated reaction product was detected using 0.2 ug/mL of a phosphotyrosine specific monoclonal antibody (clone PY20) conjugated to horseradish peroxidase in conjunction with the TMB Peroxidase Substrate System (KPL).

>  <BAO Format ID>  (490) 
BAO_0000357

>  <BAO Label>  (490) 
single protein format

>  <Assay Organism>  (490) 
None

>  <Target ChEMBL ID>  (490) 
CHEMBL2815

>  <Target Name>  (490) 
Nerve growth factor receptor Trk-A

>  <Target Organism>  (490) 
Homo sapiens

>  <Target Type>  (490) 
SINGLE PROTEIN

>  <Document ChEMBL ID>  (490) 
CHEMBL3638907

>  <Source Description>  (490) 
BindingDB Database

>  <Document Journal>  (490) 
nan

>  <Document Year>  (490) 
2014.0

>  <Active>  (490) 
1.0

>  <bits>  (490) 
<rdkit.DataStructs.cDataStructs.ExplicitBitVect object at 0x00000159F5472030>

>  <Group>  (490) 
G2

$$$$

     RDKit          2D

 33 36  0  0  0  0  0  0  0  0999 V2000
   -7.2317   -6.0469    0.0000 C   0  0  0  0  0  0  0  0  0  0  0  0
   -6.1170   -7.0506    0.0000 N   0  0  0  0  0  0  0  0  0  0  0  0
   -6.4289   -8.5179    0.0000 C   0  0  0  0  0  0  0  0  0  0  0  0
   -5.3142   -9.5216    0.0000 O   0  0  0  0  0  0  0  0  0  0  0  0
   -7.8555   -8.9814    0.0000 C   0  0  0  0  0  0  0  0  0  0  0  0
   -8.1673  -10.4486    0.0000 C   0  0  0  0  0  0  0  0  0  0  0  0
   -9.5939  -10.9121    0.0000 C   0  0  0  0  0  0  0  0  0  0  0  0
   -9.9058  -12.3794    0.0000 C   0  0  0  0  0  0  0  0  0  0  0  0
   -8.7911  -13.3831    0.0000 C   0  0  0  0  0  0  0  0  0  0  0  0
   -9.1029  -14.8503    0.0000 Cl  0  0  0  0  0  0  0  0  0  0  0  0
   -7.3645  -12.9195    0.0000 C   0  0  0  0  0  0  0  0  0  0  0  0
   -7.0526  -11.4523    0.0000 N   0  0  0  0  0  0  0  0  0  0  0  0
   -4.6904   -6.5871    0.0000 C   0  0  0  0  0  0  0  0  0  0  0  0
   -3.5757   -7.5908    0.0000 C   0  0  0  0  0  0  0  0  0  0  0  0
   -2.1491   -7.1273    0.0000 N   0  0  0  0  0  0  0  0  0  0  0  0
   -1.8373   -5.6601    0.0000 C   0  0  0  0  0  0  0  0  0  0  0  0
   -2.9520   -4.6564    0.0000 C   0  0  0  0  0  0  0  0  0  0  0  0
   -2.6401   -3.1891    0.0000 C   0  0  0  0  0  0  0  0  0  0  0  0
   -3.7548   -2.1855    0.0000 O   0  0  0  0  0  0  0  0  0  0  0  0
   -1.2135   -2.7256    0.0000 C   0  0  0  0  0  0  0  0  0  0  0  0
   -0.0000   -3.6073    0.0000 C   0  0  0  0  0  0  0  0  0  0  0  0
    1.2135   -2.7256    0.0000 N   0  0  0  0  0  0  0  0  0  0  0  0
    2.6401   -3.1891    0.0000 C   0  0  0  0  0  0  0  0  0  0  0  0
    2.1766   -4.6157    0.0000 C   0  0  0  0  0  0  0  0  0  0  0  0
    3.1036   -1.7626    0.0000 C   0  0  0  0  0  0  0  0  0  0  0  0
    4.0667   -3.6527    0.0000 C   0  0  0  0  0  0  0  0  0  0  0  0
    0.7500   -1.2990    0.0000 C   0  0  0  0  0  0  0  0  0  0  0  0
    1.5000    0.0000    0.0000 N   0  0  0  0  0  0  0  0  0  0  0  0
    0.7500    1.2990    0.0000 C   0  0  0  0  0  0  0  0  0  0  0  0
   -0.7500    1.2990    0.0000 N   0  0  0  0  0  0  0  0  0  0  0  0
   -1.5000    0.0000    0.0000 C   0  0  0  0  0  0  0  0  0  0  0  0
   -0.7500   -1.2990    0.0000 C   0  0  0  0  0  0  0  0  0  0  0  0
   -4.3786   -5.1199    0.0000 C   0  0  0  0  0  0  0  0  0  0  0  0
  1  2  1  0
  2  3  1  0
  3  4  2  0
  3  5  1  0
  5  6  1  0
  6  7  2  0
  7  8  1  0
  8  9  2  0
  9 10  1  0
  9 11  1  0
 11 12  2  0
  2 13  1  0
 13 14  2  0
 14 15  1  0
 15 16  2  0
 16 17  1  0
 17 18  1  0
 18 19  2  0
 18 20  1  0
 20 21  2  0
 21 22  1  0
 22 23  1  0
 23 24  1  0
 23 25  1  0
 23 26  1  0
 22 27  1  0
 27 28  2  0
 28 29  1  0
 29 30  2  0
 30 31  1  0
 31 32  2  0
 17 33  2  0
 12  6  1  0
 33 13  1  0
 32 20  1  0
 32 27  1  0
M  END
>  <Compound_ID>  (491) 
CHEMBL3671417

>  <Molecule Name>  (491) 
nan

>  <Molecular Weight>  (491) 
462.94

>  <AlogP>  (491) 
4.07

>  <Smiles>  (491) 
CN(C(=O)Cc1ccc(Cl)cn1)c1cncc(C(=O)c2cn(C(C)(C)C)c3ncncc23)c1

>  <Standard Type>  (491) 
IC50

>  <Standard Relation>  (491) 
'='

>  <Standard Units>  (491) 
nM

>  <Standard Value>  (491) 
50.0

>  <Assay ChEMBL ID>  (491) 
CHEMBL3887033

>  <Assay Description>  (491) 
Enzyme Assay: Isolated TRK Enzyme assays use the HTRF KinEASE-TK kit (Cisbio Cat# 62TK0PEJ) with recombinant His-tagged cytoplasmic domains of each TRK receptor sourced from Invitrogen (see table below). This activity-assay measures the phosphorylation of tyrosine residues within a substrate from the HTRF kit which has been validated by Cisbio for a variety of tyrosine kinases including the TRK receptors. Assay details: Target:TRKA; Invitrogen Cat# PV3144; Amino acids:aa 441-796; FAC enzyme:4nM; FAC ATP:40uM; Assay Reaction Time:35min.

>  <BAO Format ID>  (491) 
BAO_0000357

>  <BAO Label>  (491) 
single protein format

>  <Assay Organism>  (491) 
None

>  <Target ChEMBL ID>  (491) 
CHEMBL2815

>  <Target Name>  (491) 
Nerve growth factor receptor Trk-A

>  <Target Organism>  (491) 
Homo sapiens

>  <Target Type>  (491) 
SINGLE PROTEIN

>  <Document ChEMBL ID>  (491) 
CHEMBL3639348

>  <Source Description>  (491) 
BindingDB Database

>  <Document Journal>  (491) 
nan

>  <Document Year>  (491) 
2014.0

>  <Active>  (491) 
1.0

>  <bits>  (491) 
<rdkit.DataStructs.cDataStructs.ExplicitBitVect object at 0x00000159F54717E0>

>  <Group>  (491) 
G2

$$$$

     RDKit          2D

 34 37  0  0  0  0  0  0  0  0999 V2000
   -2.7729  -10.0617    0.0000 O   0  0  0  0  0  0  0  0  0  0  0  0
   -1.3463   -9.5982    0.0000 C   0  0  0  0  0  0  0  0  0  0  0  0
   -1.0344   -8.1310    0.0000 N   0  0  0  0  0  0  0  0  0  0  0  0
   -2.1491   -7.1273    0.0000 C   0  0  0  0  0  0  0  0  0  0  0  0
   -1.8373   -5.6601    0.0000 C   0  0  0  0  0  0  0  0  0  0  0  0
   -2.9520   -4.6564    0.0000 C   0  0  0  0  0  0  0  0  0  0  0  0
   -2.6401   -3.1891    0.0000 C   0  0  0  0  0  0  0  0  0  0  0  0
   -3.7548   -2.1855    0.0000 O   0  0  0  0  0  0  0  0  0  0  0  0
   -1.2135   -2.7256    0.0000 C   0  0  0  0  0  0  0  0  0  0  0  0
   -0.0000   -3.6073    0.0000 C   0  0  0  0  0  0  0  0  0  0  0  0
    1.2135   -2.7256    0.0000 N   0  0  0  0  0  0  0  0  0  0  0  0
    2.6401   -3.1891    0.0000 C   0  0  0  0  0  0  0  0  0  0  0  0
    2.9520   -4.6564    0.0000 C   0  0  0  0  0  0  0  0  0  0  0  0
    4.3786   -5.1199    0.0000 O   0  0  0  0  0  0  0  0  0  0  0  0
    0.7500   -1.2990    0.0000 C   0  0  0  0  0  0  0  0  0  0  0  0
    1.5000    0.0000    0.0000 C   0  0  0  0  0  0  0  0  0  0  0  0
    0.7500    1.2990    0.0000 C   0  0  0  0  0  0  0  0  0  0  0  0
   -0.7500    1.2990    0.0000 N   0  0  0  0  0  0  0  0  0  0  0  0
   -1.5000    0.0000    0.0000 C   0  0  0  0  0  0  0  0  0  0  0  0
   -0.7500   -1.2990    0.0000 C   0  0  0  0  0  0  0  0  0  0  0  0
   -4.3786   -5.1199    0.0000 C   0  0  0  0  0  0  0  0  0  0  0  0
   -4.6904   -6.5871    0.0000 C   0  0  0  0  0  0  0  0  0  0  0  0
   -3.5757   -7.5908    0.0000 N   0  0  0  0  0  0  0  0  0  0  0  0
   -0.2316  -10.6019    0.0000 C   0  0  0  0  0  0  0  0  0  0  0  0
   -0.5434  -12.0691    0.0000 C   0  0  0  0  0  0  0  0  0  0  0  0
    0.5713  -13.0728    0.0000 C   0  0  0  0  0  0  0  0  0  0  0  0
    1.9979  -12.6093    0.0000 C   0  0  0  0  0  0  0  0  0  0  0  0
    2.3097  -11.1421    0.0000 C   0  0  0  0  0  0  0  0  0  0  0  0
    3.7363  -10.6785    0.0000 O   0  0  0  0  0  0  0  0  0  0  0  0
    4.8510  -11.6822    0.0000 C   0  0  0  0  0  0  0  0  0  0  0  0
    5.9658  -12.6859    0.0000 F   0  0  0  0  0  0  0  0  0  0  0  0
    5.8547  -10.5675    0.0000 F   0  0  0  0  0  0  0  0  0  0  0  0
    3.8473  -12.7970    0.0000 F   0  0  0  0  0  0  0  0  0  0  0  0
    1.1950  -10.1384    0.0000 C   0  0  0  0  0  0  0  0  0  0  0  0
  1  2  2  0
  2  3  1  0
  3  4  1  0
  4  5  2  0
  5  6  1  0
  6  7  1  0
  7  8  2  0
  7  9  1  0
  9 10  2  0
 10 11  1  0
 11 12  1  0
 12 13  1  0
 13 14  1  0
 11 15  1  0
 15 16  2  0
 16 17  1  0
 17 18  2  0
 18 19  1  0
 19 20  2  0
  6 21  2  0
 21 22  1  0
 22 23  2  0
  2 24  1  0
 24 25  2  0
 25 26  1  0
 26 27  2  0
 27 28  1  0
 28 29  1  0
 29 30  1  0
 30 31  1  0
 30 32  1  0
 30 33  1  0
 28 34  2  0
 23  4  1  0
 34 24  1  0
 20  9  1  0
 20 15  1  0
M  END
>  <Compound_ID>  (492) 
CHEMBL3980157

>  <Molecule Name>  (492) 
nan

>  <Molecular Weight>  (492) 
470.41

>  <AlogP>  (492) 
3.81

>  <Smiles>  (492) 
O=C(Nc1cc(C(=O)c2cn(CCO)c3ccncc23)ccn1)c1cccc(OC(F)(F)F)c1

>  <Standard Type>  (492) 
IC50

>  <Standard Relation>  (492) 
'='

>  <Standard Units>  (492) 
nM

>  <Standard Value>  (492) 
29.9

>  <Assay ChEMBL ID>  (492) 
CHEMBL3887111

>  <Assay Description>  (492) 
HTRF Assay: Isolated TRK Enzyme assays use the HTRF KinEASE-TK kit (Cisbio Cat#62TK0PEJ) with recombinant His-tagged cytoplasmic domains of each TRK receptor sourced from Invitrogen (see table below). This activity-assay measures the phosphorylation of tyrosine residues within a substrate from the HTRF kit which has been validated by Cisbio for a variety of tyrosine kinases including the TRK receptors.Assay Details: Invitrogen Amino FAC FAC Assay ReactionTarget Cat# acids enzyme ATP TimeTRKA PV3144 aa 441-4 nM 40 uM 35 min (NTRK1) 796 TRKB PV3616 aa 526-1 nM 1.4 uM 40 min (NTRK2) 838 TRKC PV3617 aa 510- 10 nM 15 uM 30 min (NTRK3) 8250.5 mM stock solutions of test compounds are prepared and serially diluted in 100% DMSO. A standard curve using the compound of Example 135 disclosed in WO2005/116035 of 150 uM is also prepared on each test plate. High percentage effect (HPE) is defined by 150 uM.

>  <BAO Format ID>  (492) 
BAO_0000357

>  <BAO Label>  (492) 
single protein format

>  <Assay Organism>  (492) 
None

>  <Target ChEMBL ID>  (492) 
CHEMBL2815

>  <Target Name>  (492) 
Nerve growth factor receptor Trk-A

>  <Target Organism>  (492) 
Homo sapiens

>  <Target Type>  (492) 
SINGLE PROTEIN

>  <Document ChEMBL ID>  (492) 
CHEMBL3886170

>  <Source Description>  (492) 
BindingDB Database

>  <Document Journal>  (492) 
nan

>  <Document Year>  (492) 
2015.0

>  <Active>  (492) 
1.0

>  <bits>  (492) 
<rdkit.DataStructs.cDataStructs.ExplicitBitVect object at 0x00000159F5470CF0>

>  <Group>  (492) 
G2

$$$$

     RDKit          2D

 32 36  0  0  0  0  0  0  0  0999 V2000
   -3.7548   -2.1855    0.0000 O   0  0  0  0  0  0  0  0  0  0  0  0
   -2.6401   -3.1891    0.0000 C   0  0  0  0  0  0  0  0  0  0  0  0
   -2.9520   -4.6564    0.0000 N   0  0  0  0  0  0  0  0  0  0  0  0
   -4.3786   -5.1199    0.0000 C   0  0  0  0  0  0  0  0  0  0  0  0
   -5.4933   -4.1162    0.0000 C   0  0  0  0  0  0  0  0  0  0  0  0
   -6.9199   -4.5797    0.0000 C   0  0  0  0  0  0  0  0  0  0  0  0
   -7.2317   -6.0469    0.0000 C   0  0  0  0  0  0  0  0  0  0  0  0
   -8.6583   -6.5105    0.0000 O   0  0  0  0  0  0  0  0  0  0  0  0
   -6.1170   -7.0506    0.0000 C   0  0  0  0  0  0  0  0  0  0  0  0
   -4.6904   -6.5871    0.0000 C   0  0  0  0  0  0  0  0  0  0  0  0
   -1.2135   -2.7256    0.0000 C   0  0  0  0  0  0  0  0  0  0  0  0
   -0.0000   -3.6073    0.0000 C   0  0  0  0  0  0  0  0  0  0  0  0
    1.2135   -2.7256    0.0000 N   0  0  0  0  0  0  0  0  0  0  0  0
    0.7500   -1.2990    0.0000 N   0  0  0  0  0  0  0  0  0  0  0  0
    1.5000    0.0000    0.0000 C   0  0  0  0  0  0  0  0  0  0  0  0
    0.7500    1.2990    0.0000 C   0  0  0  0  0  0  0  0  0  0  0  0
   -0.7500    1.2990    0.0000 C   0  0  0  0  0  0  0  0  0  0  0  0
   -1.5000    2.5981    0.0000 N   0  0  0  0  0  0  0  0  0  0  0  0
   -2.9918    2.7549    0.0000 C   0  0  0  0  0  0  0  0  0  0  0  0
   -3.3037    4.2221    0.0000 C   0  0  0  0  0  0  0  0  0  0  0  0
   -2.0046    4.9721    0.0000 C   0  0  0  0  0  0  0  0  0  0  0  0
   -0.8899    3.9684    0.0000 C   0  0  0  0  0  0  0  0  0  0  0  0
    0.5773    4.2803    0.0000 C   0  0  0  0  0  0  0  0  0  0  0  0
    1.5810    3.1655    0.0000 C   0  0  0  0  0  0  0  0  0  0  0  0
    3.0482    3.4774    0.0000 C   0  0  0  0  0  0  0  0  0  0  0  0
    4.0519    2.3627    0.0000 F   0  0  0  0  0  0  0  0  0  0  0  0
    3.5118    4.9040    0.0000 C   0  0  0  0  0  0  0  0  0  0  0  0
    2.5081    6.0187    0.0000 C   0  0  0  0  0  0  0  0  0  0  0  0
    1.0409    5.7068    0.0000 C   0  0  0  0  0  0  0  0  0  0  0  0
    0.0372    6.8216    0.0000 F   0  0  0  0  0  0  0  0  0  0  0  0
   -1.5000    0.0000    0.0000 N   0  0  0  0  0  0  0  0  0  0  0  0
   -0.7500   -1.2990    0.0000 C   0  0  0  0  0  0  0  0  0  0  0  0
  1  2  2  0
  2  3  1  0
  4  3  1  6
  4  5  1  0
  5  6  1  0
  6  7  1  0
  7  8  1  1
  7  9  1  0
  9 10  1  0
  2 11  1  0
 11 12  1  0
 12 13  2  0
 13 14  1  0
 14 15  1  0
 15 16  2  0
 16 17  1  0
 17 18  1  0
 18 19  1  0
 19 20  1  0
 20 21  1  0
 21 22  1  0
 22 23  1  6
 23 24  2  0
 24 25  1  0
 25 26  1  0
 25 27  2  0
 27 28  1  0
 28 29  2  0
 29 30  1  0
 17 31  2  0
 31 32  1  0
 10  4  1  0
 32 11  2  0
 32 14  1  0
 22 18  1  0
 29 23  1  0
M  END
>  <Compound_ID>  (493) 
CHEMBL3671135

>  <Molecule Name>  (493) 
nan

>  <Molecular Weight>  (493) 
441.48

>  <AlogP>  (493) 
3.38

>  <Smiles>  (493) 
O=C(N[C@H]1CC[C@H](O)CC1)c1cnn2ccc(N3CCC[C@@H]3c3cc(F)ccc3F)nc12

>  <Standard Type>  (493) 
IC50

>  <Standard Relation>  (493) 
'='

>  <Standard Units>  (493) 
nM

>  <Standard Value>  (493) 
0.45

>  <Assay ChEMBL ID>  (493) 
CHEMBL3887070

>  <Assay Description>  (493) 
ELISA Assay: An enzyme-linked immunosorbant assay (ELISA) was used to assess TrkA kinase activity in the presence of inhibitors. Immulon 4HBX 384-well microtiter plates (Thermo part #8755) were coated with a 0.025 mg/mL solution of poly (Glu, Ala, Tyr; 6:3:1; Sigma P3899). Various concentrations of test compound, 2.5 nM TrkA (Invitrogen Corp., histidine-tagged recombinant human TrkA, cytoplasmic domain), and 500 uM ATP were incubated for 25 minutes at ambient temperature in the coated plates while shaking The assay buffer consisted of 25 mM MOPS pH 7.5, 0.005% (v/v) Triton X-100 and 5 mM MgCl2. The reaction mixture was removed from the plate by washing with PBS containing 0.1% (v/v) Tween 20. The phosphorylated reaction product was detected using 0.2 ug/mL of a phosphotyrosine specific monoclonal antibody (clone PY20) conjugated to horseradish peroxidase in conjunction with the TMB Peroxidase Substrate System (KPL).

>  <BAO Format ID>  (493) 
BAO_0000357

>  <BAO Label>  (493) 
single protein format

>  <Assay Organism>  (493) 
None

>  <Target ChEMBL ID>  (493) 
CHEMBL2815

>  <Target Name>  (493) 
Nerve growth factor receptor Trk-A

>  <Target Organism>  (493) 
Homo sapiens

>  <Target Type>  (493) 
SINGLE PROTEIN

>  <Document ChEMBL ID>  (493) 
CHEMBL3638907

>  <Source Description>  (493) 
BindingDB Database

>  <Document Journal>  (493) 
nan

>  <Document Year>  (493) 
2014.0

>  <Active>  (493) 
1.0

>  <bits>  (493) 
<rdkit.DataStructs.cDataStructs.ExplicitBitVect object at 0x00000159F5473060>

>  <Group>  (493) 
G2

$$$$

     RDKit          2D

 34 38  0  0  0  0  0  0  0  0999 V2000
   -2.9520   -4.6564    0.0000 C   0  0  0  0  0  0  0  0  0  0  0  0
   -2.6401   -3.1891    0.0000 C   0  0  0  0  0  0  0  0  0  0  0  0
   -3.7548   -2.1855    0.0000 C   0  0  0  0  0  0  0  0  0  0  0  0
   -1.2135   -2.7256    0.0000 N   0  0  0  0  0  0  0  0  0  0  0  0
   -0.0000   -3.6073    0.0000 C   0  0  0  0  0  0  0  0  0  0  0  0
    1.2135   -2.7256    0.0000 C   0  0  0  0  0  0  0  0  0  0  0  0
    2.6401   -3.1891    0.0000 C   0  0  0  0  0  0  0  0  0  0  0  0
    3.7548   -2.1855    0.0000 O   0  0  0  0  0  0  0  0  0  0  0  0
    2.9520   -4.6564    0.0000 C   0  0  0  0  0  0  0  0  0  0  0  0
    1.8373   -5.6601    0.0000 C   0  0  0  0  0  0  0  0  0  0  0  0
    2.1491   -7.1273    0.0000 N   0  0  0  0  0  0  0  0  0  0  0  0
    3.5757   -7.5908    0.0000 C   0  0  0  0  0  0  0  0  0  0  0  0
    4.6904   -6.5871    0.0000 C   0  0  0  0  0  0  0  0  0  0  0  0
    6.1170   -7.0506    0.0000 N   0  0  0  0  0  0  0  0  0  0  0  0
    6.4289   -8.5179    0.0000 C   0  0  0  0  0  0  0  0  0  0  0  0
    5.3142   -9.5216    0.0000 O   0  0  0  0  0  0  0  0  0  0  0  0
    7.8555   -8.9814    0.0000 C   0  0  0  0  0  0  0  0  0  0  0  0
    8.1673  -10.4486    0.0000 C   0  0  0  0  0  0  0  0  0  0  0  0
    7.0526  -11.4523    0.0000 C   0  0  0  0  0  0  0  0  0  0  0  0
    7.3645  -12.9195    0.0000 C   0  0  0  0  0  0  0  0  0  0  0  0
    8.7911  -13.3831    0.0000 C   0  0  0  0  0  0  0  0  0  0  0  0
    9.4012  -14.7534    0.0000 O   0  0  0  0  0  0  0  0  0  0  0  0
   10.8930  -14.5966    0.0000 C   0  0  0  0  0  0  0  0  0  0  0  0
   11.2048  -13.1294    0.0000 N   0  0  0  0  0  0  0  0  0  0  0  0
    9.9058  -12.3794    0.0000 C   0  0  0  0  0  0  0  0  0  0  0  0
    9.5939  -10.9121    0.0000 C   0  0  0  0  0  0  0  0  0  0  0  0
    4.3786   -5.1199    0.0000 C   0  0  0  0  0  0  0  0  0  0  0  0
    0.7500   -1.2990    0.0000 C   0  0  0  0  0  0  0  0  0  0  0  0
    1.5000    0.0000    0.0000 C   0  0  0  0  0  0  0  0  0  0  0  0
    0.7500    1.2990    0.0000 N   0  0  0  0  0  0  0  0  0  0  0  0
   -0.7500    1.2990    0.0000 C   0  0  0  0  0  0  0  0  0  0  0  0
   -1.5000    2.5981    0.0000 N   0  0  0  0  0  0  0  0  0  0  0  0
   -1.5000    0.0000    0.0000 N   0  0  0  0  0  0  0  0  0  0  0  0
   -0.7500   -1.2990    0.0000 C   0  0  0  0  0  0  0  0  0  0  0  0
  1  2  1  0
  2  3  1  0
  2  4  1  0
  4  5  1  0
  5  6  2  0
  6  7  1  0
  7  8  2  0
  7  9  1  0
  9 10  2  0
 10 11  1  0
 11 12  2  0
 12 13  1  0
 13 14  1  0
 14 15  1  0
 15 16  2  0
 15 17  1  0
 17 18  1  0
 18 19  2  0
 19 20  1  0
 20 21  2  0
 21 22  1  0
 22 23  1  0
 23 24  2  0
 24 25  1  0
 25 26  2  0
 13 27  2  0
  6 28  1  0
 28 29  2  0
 29 30  1  0
 30 31  2  0
 31 32  1  0
 31 33  1  0
 33 34  2  0
 34  4  1  0
 27  9  1  0
 34 28  1  0
 26 18  1  0
 25 21  1  0
M  END
>  <Compound_ID>  (494) 
CHEMBL3666250

>  <Molecule Name>  (494) 
nan

>  <Molecular Weight>  (494) 
455.48

>  <AlogP>  (494) 
3.54

>  <Smiles>  (494) 
CC(C)n1cc(C(=O)c2cncc(NC(=O)Cc3ccc4ocnc4c3)c2)c2cnc(N)nc21

>  <Standard Type>  (494) 
IC50

>  <Standard Relation>  (494) 
'='

>  <Standard Units>  (494) 
nM

>  <Standard Value>  (494) 
35.6

>  <Assay ChEMBL ID>  (494) 
CHEMBL3887033

>  <Assay Description>  (494) 
Enzyme Assay: Isolated TRK Enzyme assays use the HTRF KinEASE-TK kit (Cisbio Cat# 62TK0PEJ) with recombinant His-tagged cytoplasmic domains of each TRK receptor sourced from Invitrogen (see table below). This activity-assay measures the phosphorylation of tyrosine residues within a substrate from the HTRF kit which has been validated by Cisbio for a variety of tyrosine kinases including the TRK receptors. Assay details: Target:TRKA; Invitrogen Cat# PV3144; Amino acids:aa 441-796; FAC enzyme:4nM; FAC ATP:40uM; Assay Reaction Time:35min.

>  <BAO Format ID>  (494) 
BAO_0000357

>  <BAO Label>  (494) 
single protein format

>  <Assay Organism>  (494) 
None

>  <Target ChEMBL ID>  (494) 
CHEMBL2815

>  <Target Name>  (494) 
Nerve growth factor receptor Trk-A

>  <Target Organism>  (494) 
Homo sapiens

>  <Target Type>  (494) 
SINGLE PROTEIN

>  <Document ChEMBL ID>  (494) 
CHEMBL3639348

>  <Source Description>  (494) 
BindingDB Database

>  <Document Journal>  (494) 
nan

>  <Document Year>  (494) 
2014.0

>  <Active>  (494) 
1.0

>  <bits>  (494) 
<rdkit.DataStructs.cDataStructs.ExplicitBitVect object at 0x00000159F5471070>

>  <Group>  (494) 
G2

$$$$

     RDKit          2D

 34 38  0  0  0  0  0  0  0  0999 V2000
    3.7500   -1.2990    0.0000 C   0  0  0  0  0  0  0  0  0  0  0  0
    3.0000    0.0000    0.0000 O   0  0  0  0  0  0  0  0  0  0  0  0
    1.5000    0.0000    0.0000 C   0  0  0  0  0  0  0  0  0  0  0  0
    0.7500   -1.2990    0.0000 C   0  0  0  0  0  0  0  0  0  0  0  0
   -0.7500   -1.2990    0.0000 C   0  0  0  0  0  0  0  0  0  0  0  0
   -1.5000    0.0000    0.0000 C   0  0  0  0  0  0  0  0  0  0  0  0
   -2.9672    0.3119    0.0000 N   0  0  0  0  0  0  0  0  0  0  0  0
   -3.1240    1.8037    0.0000 C   0  0  0  0  0  0  0  0  0  0  0  0
   -4.4231    2.5537    0.0000 C   0  0  0  0  0  0  0  0  0  0  0  0
   -5.7221    1.8037    0.0000 O   0  0  0  0  0  0  0  0  0  0  0  0
   -4.4231    4.0537    0.0000 N   0  0  0  0  0  0  0  0  0  0  0  0
   -5.7221    4.8037    0.0000 C   0  0  0  0  0  0  0  0  0  0  0  0
   -5.7221    6.3037    0.0000 C   0  0  0  0  0  0  0  0  0  0  0  0
   -7.0211    7.0537    0.0000 N   0  0  0  0  0  0  0  0  0  0  0  0
   -8.3202    6.3037    0.0000 C   0  0  0  0  0  0  0  0  0  0  0  0
   -8.3202    4.8037    0.0000 C   0  0  0  0  0  0  0  0  0  0  0  0
   -9.6192    4.0537    0.0000 C   0  0  0  0  0  0  0  0  0  0  0  0
   -9.6192    2.5537    0.0000 O   0  0  0  0  0  0  0  0  0  0  0  0
  -10.9182    4.8037    0.0000 C   0  0  0  0  0  0  0  0  0  0  0  0
  -11.0750    6.2954    0.0000 C   0  0  0  0  0  0  0  0  0  0  0  0
  -12.5423    6.6073    0.0000 N   0  0  0  0  0  0  0  0  0  0  0  0
  -13.1524    7.9776    0.0000 C   0  0  0  0  0  0  0  0  0  0  0  0
  -12.2707    9.1911    0.0000 C   0  0  0  0  0  0  0  0  0  0  0  0
  -14.6441    8.1344    0.0000 C   0  0  0  0  0  0  0  0  0  0  0  0
  -13.2923    5.3083    0.0000 C   0  0  0  0  0  0  0  0  0  0  0  0
  -14.7595    4.9964    0.0000 N   0  0  0  0  0  0  0  0  0  0  0  0
  -15.2230    3.5698    0.0000 C   0  0  0  0  0  0  0  0  0  0  0  0
  -14.2193    2.4551    0.0000 N   0  0  0  0  0  0  0  0  0  0  0  0
  -12.7521    2.7670    0.0000 C   0  0  0  0  0  0  0  0  0  0  0  0
  -12.2886    4.1935    0.0000 C   0  0  0  0  0  0  0  0  0  0  0  0
   -7.0211    4.0537    0.0000 C   0  0  0  0  0  0  0  0  0  0  0  0
   -1.7537    2.4138    0.0000 N   0  0  0  0  0  0  0  0  0  0  0  0
   -0.7500    1.2990    0.0000 C   0  0  0  0  0  0  0  0  0  0  0  0
    0.7500    1.2990    0.0000 C   0  0  0  0  0  0  0  0  0  0  0  0
  1  2  1  0
  2  3  1  0
  3  4  2  0
  4  5  1  0
  5  6  2  0
  6  7  1  0
  7  8  1  0
  8  9  1  0
  9 10  2  0
  9 11  1  0
 11 12  1  0
 12 13  2  0
 13 14  1  0
 14 15  2  0
 15 16  1  0
 16 17  1  0
 17 18  2  0
 17 19  1  0
 19 20  2  0
 20 21  1  0
 21 22  1  0
 22 23  1  0
 22 24  1  0
 21 25  1  0
 25 26  2  0
 26 27  1  0
 27 28  2  0
 28 29  1  0
 29 30  2  0
 16 31  2  0
  8 32  2  0
 32 33  1  0
 33 34  2  0
 34  3  1  0
 33  6  1  0
 31 12  1  0
 30 19  1  0
 30 25  1  0
M  END
>  <Compound_ID>  (495) 
CHEMBL3666424

>  <Molecule Name>  (495) 
nan

>  <Molecular Weight>  (495) 
455.48

>  <AlogP>  (495) 
3.78

>  <Smiles>  (495) 
COc1ccc2[nH]c(C(=O)Nc3cncc(C(=O)c4cn(C(C)C)c5ncncc45)c3)nc2c1

>  <Standard Type>  (495) 
IC50

>  <Standard Relation>  (495) 
'='

>  <Standard Units>  (495) 
nM

>  <Standard Value>  (495) 
36.6

>  <Assay ChEMBL ID>  (495) 
CHEMBL3887033

>  <Assay Description>  (495) 
Enzyme Assay: Isolated TRK Enzyme assays use the HTRF KinEASE-TK kit (Cisbio Cat# 62TK0PEJ) with recombinant His-tagged cytoplasmic domains of each TRK receptor sourced from Invitrogen (see table below). This activity-assay measures the phosphorylation of tyrosine residues within a substrate from the HTRF kit which has been validated by Cisbio for a variety of tyrosine kinases including the TRK receptors. Assay details: Target:TRKA; Invitrogen Cat# PV3144; Amino acids:aa 441-796; FAC enzyme:4nM; FAC ATP:40uM; Assay Reaction Time:35min.

>  <BAO Format ID>  (495) 
BAO_0000357

>  <BAO Label>  (495) 
single protein format

>  <Assay Organism>  (495) 
None

>  <Target ChEMBL ID>  (495) 
CHEMBL2815

>  <Target Name>  (495) 
Nerve growth factor receptor Trk-A

>  <Target Organism>  (495) 
Homo sapiens

>  <Target Type>  (495) 
SINGLE PROTEIN

>  <Document ChEMBL ID>  (495) 
CHEMBL3639348

>  <Source Description>  (495) 
BindingDB Database

>  <Document Journal>  (495) 
nan

>  <Document Year>  (495) 
2014.0

>  <Active>  (495) 
1.0

>  <bits>  (495) 
<rdkit.DataStructs.cDataStructs.ExplicitBitVect object at 0x00000159F54727A0>

>  <Group>  (495) 
G2

$$$$

     RDKit          2D

 37 40  0  0  0  0  0  0  0  0999 V2000
   -2.1766   -4.6157    0.0000 C   0  0  0  0  0  0  0  0  0  0  0  0
   -2.6401   -3.1891    0.0000 C   0  0  0  0  0  0  0  0  0  0  0  0
   -3.1036   -1.7626    0.0000 C   0  0  0  0  0  0  0  0  0  0  0  0
   -4.0667   -3.6527    0.0000 C   0  0  0  0  0  0  0  0  0  0  0  0
   -5.1814   -2.6490    0.0000 O   0  0  0  0  0  0  0  0  0  0  0  0
   -1.2135   -2.7256    0.0000 N   0  0  0  0  0  0  0  0  0  0  0  0
   -0.0000   -3.6073    0.0000 C   0  0  0  0  0  0  0  0  0  0  0  0
    1.2135   -2.7256    0.0000 C   0  0  0  0  0  0  0  0  0  0  0  0
    2.6401   -3.1891    0.0000 C   0  0  0  0  0  0  0  0  0  0  0  0
    3.7548   -2.1855    0.0000 O   0  0  0  0  0  0  0  0  0  0  0  0
    2.9520   -4.6564    0.0000 C   0  0  0  0  0  0  0  0  0  0  0  0
    1.8373   -5.6601    0.0000 C   0  0  0  0  0  0  0  0  0  0  0  0
    2.1491   -7.1273    0.0000 N   0  0  0  0  0  0  0  0  0  0  0  0
    3.5757   -7.5908    0.0000 C   0  0  0  0  0  0  0  0  0  0  0  0
    4.6904   -6.5871    0.0000 C   0  0  0  0  0  0  0  0  0  0  0  0
    6.1170   -7.0506    0.0000 N   0  0  0  0  0  0  0  0  0  0  0  0
    6.4289   -8.5179    0.0000 C   0  0  0  0  0  0  0  0  0  0  0  0
    5.3142   -9.5216    0.0000 O   0  0  0  0  0  0  0  0  0  0  0  0
    7.8555   -8.9814    0.0000 C   0  0  0  0  0  0  0  0  0  0  0  0
    8.1673  -10.4486    0.0000 C   0  0  0  0  0  0  0  0  0  0  0  0
    7.0526  -11.4523    0.0000 C   0  0  0  0  0  0  0  0  0  0  0  0
    7.3645  -12.9195    0.0000 C   0  0  0  0  0  0  0  0  0  0  0  0
    8.7911  -13.3831    0.0000 C   0  0  0  0  0  0  0  0  0  0  0  0
    9.1029  -14.8503    0.0000 O   0  0  0  0  0  0  0  0  0  0  0  0
    7.9882  -15.8540    0.0000 C   0  0  0  0  0  0  0  0  0  0  0  0
    8.3001  -17.3212    0.0000 F   0  0  0  0  0  0  0  0  0  0  0  0
    6.5616  -15.3904    0.0000 F   0  0  0  0  0  0  0  0  0  0  0  0
    9.9058  -12.3794    0.0000 C   0  0  0  0  0  0  0  0  0  0  0  0
    9.5939  -10.9121    0.0000 C   0  0  0  0  0  0  0  0  0  0  0  0
    4.3786   -5.1199    0.0000 C   0  0  0  0  0  0  0  0  0  0  0  0
    0.7500   -1.2990    0.0000 C   0  0  0  0  0  0  0  0  0  0  0  0
    1.5000    0.0000    0.0000 C   0  0  0  0  0  0  0  0  0  0  0  0
    0.7500    1.2990    0.0000 N   0  0  0  0  0  0  0  0  0  0  0  0
   -0.7500    1.2990    0.0000 C   0  0  0  0  0  0  0  0  0  0  0  0
   -1.5000    2.5981    0.0000 N   0  0  0  0  0  0  0  0  0  0  0  0
   -1.5000    0.0000    0.0000 N   0  0  0  0  0  0  0  0  0  0  0  0
   -0.7500   -1.2990    0.0000 C   0  0  0  0  0  0  0  0  0  0  0  0
  1  2  1  0
  2  3  1  0
  2  4  1  0
  4  5  1  0
  2  6  1  0
  6  7  1  0
  7  8  2  0
  8  9  1  0
  9 10  2  0
  9 11  1  0
 11 12  2  0
 12 13  1  0
 13 14  2  0
 14 15  1  0
 15 16  1  0
 16 17  1  0
 17 18  2  0
 17 19  1  0
 19 20  1  0
 20 21  2  0
 21 22  1  0
 22 23  2  0
 23 24  1  0
 24 25  1  0
 25 26  1  0
 25 27  1  0
 23 28  1  0
 28 29  2  0
 15 30  2  0
  8 31  1  0
 31 32  2  0
 32 33  1  0
 33 34  2  0
 34 35  1  0
 34 36  1  0
 36 37  2  0
 37  6  1  0
 30 11  1  0
 37 31  1  0
 29 20  1  0
M  END
>  <Compound_ID>  (496) 
CHEMBL3671438

>  <Molecule Name>  (496) 
nan

>  <Molecular Weight>  (496) 
510.5

>  <AlogP>  (496) 
3.15

>  <Smiles>  (496) 
CC(C)(CO)n1cc(C(=O)c2cncc(NC(=O)Cc3ccc(OC(F)F)cc3)c2)c2cnc(N)nc21

>  <Standard Type>  (496) 
IC50

>  <Standard Relation>  (496) 
'='

>  <Standard Units>  (496) 
nM

>  <Standard Value>  (496) 
17.9

>  <Assay ChEMBL ID>  (496) 
CHEMBL3887033

>  <Assay Description>  (496) 
Enzyme Assay: Isolated TRK Enzyme assays use the HTRF KinEASE-TK kit (Cisbio Cat# 62TK0PEJ) with recombinant His-tagged cytoplasmic domains of each TRK receptor sourced from Invitrogen (see table below). This activity-assay measures the phosphorylation of tyrosine residues within a substrate from the HTRF kit which has been validated by Cisbio for a variety of tyrosine kinases including the TRK receptors. Assay details: Target:TRKA; Invitrogen Cat# PV3144; Amino acids:aa 441-796; FAC enzyme:4nM; FAC ATP:40uM; Assay Reaction Time:35min.

>  <BAO Format ID>  (496) 
BAO_0000357

>  <BAO Label>  (496) 
single protein format

>  <Assay Organism>  (496) 
None

>  <Target ChEMBL ID>  (496) 
CHEMBL2815

>  <Target Name>  (496) 
Nerve growth factor receptor Trk-A

>  <Target Organism>  (496) 
Homo sapiens

>  <Target Type>  (496) 
SINGLE PROTEIN

>  <Document ChEMBL ID>  (496) 
CHEMBL3639348

>  <Source Description>  (496) 
BindingDB Database

>  <Document Journal>  (496) 
nan

>  <Document Year>  (496) 
2014.0

>  <Active>  (496) 
1.0

>  <bits>  (496) 
<rdkit.DataStructs.cDataStructs.ExplicitBitVect object at 0x00000159F5472490>

>  <Group>  (496) 
G2

$$$$

     RDKit          2D

 34 38  0  0  0  0  0  0  0  0999 V2000
   -9.7730   -5.5068    0.0000 C   0  0  0  0  0  0  0  0  0  0  0  0
   -8.6583   -6.5105    0.0000 C   0  0  0  0  0  0  0  0  0  0  0  0
   -8.9702   -7.9777    0.0000 C   0  0  0  0  0  0  0  0  0  0  0  0
   -7.2317   -6.0469    0.0000 N   0  0  0  0  0  0  0  0  0  0  0  0
   -6.9199   -4.5797    0.0000 C   0  0  0  0  0  0  0  0  0  0  0  0
   -5.4933   -4.1162    0.0000 C   0  0  0  0  0  0  0  0  0  0  0  0
   -4.3786   -5.1199    0.0000 N   0  0  0  0  0  0  0  0  0  0  0  0
   -2.9520   -4.6564    0.0000 C   0  0  0  0  0  0  0  0  0  0  0  0
   -1.8373   -5.6601    0.0000 O   0  0  0  0  0  0  0  0  0  0  0  0
   -2.6401   -3.1891    0.0000 N   0  0  0  0  0  0  0  0  0  0  0  0
   -1.2135   -2.7256    0.0000 C   0  0  0  0  0  0  0  0  0  0  0  0
   -0.0000   -3.6073    0.0000 C   0  0  0  0  0  0  0  0  0  0  0  0
    1.2135   -2.7256    0.0000 N   0  0  0  0  0  0  0  0  0  0  0  0
    0.7500   -1.2990    0.0000 N   0  0  0  0  0  0  0  0  0  0  0  0
    1.5000    0.0000    0.0000 C   0  0  0  0  0  0  0  0  0  0  0  0
    0.7500    1.2990    0.0000 C   0  0  0  0  0  0  0  0  0  0  0  0
   -0.7500    1.2990    0.0000 C   0  0  0  0  0  0  0  0  0  0  0  0
   -1.5000    2.5981    0.0000 N   0  0  0  0  0  0  0  0  0  0  0  0
   -2.9918    2.7549    0.0000 C   0  0  0  0  0  0  0  0  0  0  0  0
   -3.3037    4.2221    0.0000 C   0  0  0  0  0  0  0  0  0  0  0  0
   -2.0046    4.9721    0.0000 C   0  0  0  0  0  0  0  0  0  0  0  0
   -0.8899    3.9684    0.0000 C   0  0  0  0  0  0  0  0  0  0  0  0
    0.5773    4.2803    0.0000 C   0  0  0  0  0  0  0  0  0  0  0  0
    1.5810    3.1655    0.0000 C   0  0  0  0  0  0  0  0  0  0  0  0
    3.0482    3.4774    0.0000 C   0  0  0  0  0  0  0  0  0  0  0  0
    4.0519    2.3627    0.0000 F   0  0  0  0  0  0  0  0  0  0  0  0
    3.5118    4.9040    0.0000 C   0  0  0  0  0  0  0  0  0  0  0  0
    2.5081    6.0187    0.0000 C   0  0  0  0  0  0  0  0  0  0  0  0
    1.0409    5.7068    0.0000 C   0  0  0  0  0  0  0  0  0  0  0  0
    0.0372    6.8216    0.0000 F   0  0  0  0  0  0  0  0  0  0  0  0
   -1.5000    0.0000    0.0000 N   0  0  0  0  0  0  0  0  0  0  0  0
   -0.7500   -1.2990    0.0000 C   0  0  0  0  0  0  0  0  0  0  0  0
   -4.6904   -6.5871    0.0000 C   0  0  0  0  0  0  0  0  0  0  0  0
   -6.1170   -7.0506    0.0000 C   0  0  0  0  0  0  0  0  0  0  0  0
  1  2  1  0
  2  3  1  0
  2  4  1  0
  4  5  1  0
  5  6  1  0
  6  7  1  0
  7  8  1  0
  8  9  2  0
  8 10  1  0
 10 11  1  0
 11 12  1  0
 12 13  2  0
 13 14  1  0
 14 15  1  0
 15 16  2  0
 16 17  1  0
 17 18  1  0
 18 19  1  0
 19 20  1  0
 20 21  1  0
 21 22  1  0
 22 23  1  6
 23 24  2  0
 24 25  1  0
 25 26  1  0
 25 27  2  0
 27 28  1  0
 28 29  2  0
 29 30  1  0
 17 31  2  0
 31 32  1  0
  7 33  1  0
 33 34  1  0
 34  4  1  0
 32 11  2  0
 32 14  1  0
 22 18  1  0
 29 23  1  0
M  END
>  <Compound_ID>  (497) 
CHEMBL4115654

>  <Molecule Name>  (497) 
nan

>  <Molecular Weight>  (497) 
469.54

>  <AlogP>  (497) 
3.91

>  <Smiles>  (497) 
CC(C)N1CCN(C(=O)Nc2cnn3ccc(N4CCC[C@@H]4c4cc(F)ccc4F)nc23)CC1

>  <Standard Type>  (497) 
IC50

>  <Standard Relation>  (497) 
'='

>  <Standard Units>  (497) 
nM

>  <Standard Value>  (497) 
45.0

>  <Assay ChEMBL ID>  (497) 
CHEMBL3887076

>  <Assay Description>  (497) 
ELISA Assay: An enzyme-linked immunosorbant assay (ELISA) was used to assess TrkA kinase activity in the presence of inhibitors. Immulon 4HBX 384-well microtiter plates (Thermo part #8755) were coated with a 0.025 mg/mL solution of poly (Glu, Ala, Tyr; 6:3:1; Sigma P3899). Various concentrations of test compound, 2.5 nM TrkA (Invitrogen Corp., histidine-tagged recombinant human TrkA, cytoplasmic domain), and 500 uM ATP were incubated for 25 minutes at ambient temperature in the coated plates while shaking. The assay buffer consisted of 25 mM MOPS pH 7.5, 0.005% (v/v) Triton X-100 and 5 mM MgCl2. The reaction mixture was removed from the plate by washing with PBS containing 0.1% (v/v) Tween 20. The phosphorylated reaction product was detected using 0.2 ug/mL of a phosphotyrosine specific monoclonal antibody (clone PY20) conjugated to horseradish peroxidase in conjunction with the TMB Peroxidase Substrate System (KPL).

>  <BAO Format ID>  (497) 
BAO_0000357

>  <BAO Label>  (497) 
single protein format

>  <Assay Organism>  (497) 
None

>  <Target ChEMBL ID>  (497) 
CHEMBL2815

>  <Target Name>  (497) 
Nerve growth factor receptor Trk-A

>  <Target Organism>  (497) 
Homo sapiens

>  <Target Type>  (497) 
SINGLE PROTEIN

>  <Document ChEMBL ID>  (497) 
CHEMBL3886151

>  <Source Description>  (497) 
BindingDB Database

>  <Document Journal>  (497) 
nan

>  <Document Year>  (497) 
2014.0

>  <Active>  (497) 
1.0

>  <bits>  (497) 
<rdkit.DataStructs.cDataStructs.ExplicitBitVect object at 0x00000159F5472340>

>  <Group>  (497) 
G2

$$$$

     RDKit          2D

 33 37  0  0  0  0  0  0  0  0999 V2000
   -4.8421   -3.6933    0.0000 C   0  0  0  0  0  0  0  0  0  0  0  0
   -4.3786   -5.1199    0.0000 C   0  0  0  0  0  0  0  0  0  0  0  0
   -3.9150   -6.5465    0.0000 C   0  0  0  0  0  0  0  0  0  0  0  0
   -2.9520   -4.6564    0.0000 C   0  0  0  0  0  0  0  0  0  0  0  0
   -1.8373   -5.6601    0.0000 O   0  0  0  0  0  0  0  0  0  0  0  0
   -2.6401   -3.1891    0.0000 N   0  0  0  0  0  0  0  0  0  0  0  0
   -1.2135   -2.7256    0.0000 C   0  0  0  0  0  0  0  0  0  0  0  0
   -0.0000   -3.6073    0.0000 C   0  0  0  0  0  0  0  0  0  0  0  0
    1.2135   -2.7256    0.0000 N   0  0  0  0  0  0  0  0  0  0  0  0
    0.7500   -1.2990    0.0000 N   0  0  0  0  0  0  0  0  0  0  0  0
    1.5000    0.0000    0.0000 C   0  0  0  0  0  0  0  0  0  0  0  0
    0.7500    1.2990    0.0000 C   0  0  0  0  0  0  0  0  0  0  0  0
   -0.7500    1.2990    0.0000 C   0  0  0  0  0  0  0  0  0  0  0  0
   -1.5000    2.5981    0.0000 N   0  0  0  0  0  0  0  0  0  0  0  0
   -2.9918    2.7549    0.0000 C   0  0  0  0  0  0  0  0  0  0  0  0
   -3.3037    4.2221    0.0000 C   0  0  0  0  0  0  0  0  0  0  0  0
   -2.0046    4.9721    0.0000 C   0  0  0  0  0  0  0  0  0  0  0  0
   -0.8899    3.9684    0.0000 C   0  0  0  0  0  0  0  0  0  0  0  0
    0.5773    4.2803    0.0000 C   0  0  0  0  0  0  0  0  0  0  0  0
    1.5810    3.1655    0.0000 C   0  0  0  0  0  0  0  0  0  0  0  0
    3.0482    3.4774    0.0000 C   0  0  0  0  0  0  0  0  0  0  0  0
    4.0519    2.3627    0.0000 F   0  0  0  0  0  0  0  0  0  0  0  0
    3.5118    4.9040    0.0000 C   0  0  0  0  0  0  0  0  0  0  0  0
    2.5081    6.0187    0.0000 C   0  0  0  0  0  0  0  0  0  0  0  0
    1.0409    5.7068    0.0000 C   0  0  0  0  0  0  0  0  0  0  0  0
    0.0372    6.8216    0.0000 F   0  0  0  0  0  0  0  0  0  0  0  0
   -1.5000    0.0000    0.0000 N   0  0  0  0  0  0  0  0  0  0  0  0
   -0.7500   -1.2990    0.0000 C   0  0  0  0  0  0  0  0  0  0  0  0
   -5.8051   -5.5834    0.0000 N   0  0  0  0  0  0  0  0  0  0  0  0
   -6.2687   -7.0100    0.0000 C   0  0  0  0  0  0  0  0  0  0  0  0
   -7.7687   -7.0100    0.0000 N   0  0  0  0  0  0  0  0  0  0  0  0
   -8.2322   -5.5834    0.0000 C   0  0  0  0  0  0  0  0  0  0  0  0
   -7.0187   -4.7017    0.0000 N   0  0  0  0  0  0  0  0  0  0  0  0
  1  2  1  0
  2  3  1  0
  2  4  1  0
  4  5  2  0
  4  6  1  0
  6  7  1  0
  7  8  1  0
  8  9  2  0
  9 10  1  0
 10 11  1  0
 11 12  2  0
 12 13  1  0
 13 14  1  0
 14 15  1  0
 15 16  1  0
 16 17  1  0
 17 18  1  0
 18 19  1  6
 19 20  2  0
 20 21  1  0
 21 22  1  0
 21 23  2  0
 23 24  1  0
 24 25  2  0
 25 26  1  0
 13 27  2  0
 27 28  1  0
  2 29  1  0
 29 30  1  0
 30 31  2  0
 31 32  1  0
 32 33  2  0
 28  7  2  0
 33 29  1  0
 28 10  1  0
 18 14  1  0
 25 19  1  0
M  END
>  <Compound_ID>  (498) 
CHEMBL4112549

>  <Molecule Name>  (498) 
nan

>  <Molecular Weight>  (498) 
452.47

>  <AlogP>  (498) 
3.31

>  <Smiles>  (498) 
CC(C)(C(=O)Nc1cnn2ccc(N3CCC[C@@H]3c3cc(F)ccc3F)nc12)n1cncn1

>  <Standard Type>  (498) 
IC50

>  <Standard Relation>  (498) 
'='

>  <Standard Units>  (498) 
nM

>  <Standard Value>  (498) 
14.4

>  <Assay ChEMBL ID>  (498) 
CHEMBL3887076

>  <Assay Description>  (498) 
ELISA Assay: An enzyme-linked immunosorbant assay (ELISA) was used to assess TrkA kinase activity in the presence of inhibitors. Immulon 4HBX 384-well microtiter plates (Thermo part #8755) were coated with a 0.025 mg/mL solution of poly (Glu, Ala, Tyr; 6:3:1; Sigma P3899). Various concentrations of test compound, 2.5 nM TrkA (Invitrogen Corp., histidine-tagged recombinant human TrkA, cytoplasmic domain), and 500 uM ATP were incubated for 25 minutes at ambient temperature in the coated plates while shaking. The assay buffer consisted of 25 mM MOPS pH 7.5, 0.005% (v/v) Triton X-100 and 5 mM MgCl2. The reaction mixture was removed from the plate by washing with PBS containing 0.1% (v/v) Tween 20. The phosphorylated reaction product was detected using 0.2 ug/mL of a phosphotyrosine specific monoclonal antibody (clone PY20) conjugated to horseradish peroxidase in conjunction with the TMB Peroxidase Substrate System (KPL).

>  <BAO Format ID>  (498) 
BAO_0000357

>  <BAO Label>  (498) 
single protein format

>  <Assay Organism>  (498) 
None

>  <Target ChEMBL ID>  (498) 
CHEMBL2815

>  <Target Name>  (498) 
Nerve growth factor receptor Trk-A

>  <Target Organism>  (498) 
Homo sapiens

>  <Target Type>  (498) 
SINGLE PROTEIN

>  <Document ChEMBL ID>  (498) 
CHEMBL3886151

>  <Source Description>  (498) 
BindingDB Database

>  <Document Journal>  (498) 
nan

>  <Document Year>  (498) 
2014.0

>  <Active>  (498) 
1.0

>  <bits>  (498) 
<rdkit.DataStructs.cDataStructs.ExplicitBitVect object at 0x00000159F54715B0>

>  <Group>  (498) 
G2

$$$$

     RDKit          2D

 33 37  0  0  0  0  0  0  0  0999 V2000
    7.3934   -3.6905    0.0000 C   0  0  0  0  0  0  0  0  0  0  0  0
    5.9262   -3.3786    0.0000 O   0  0  0  0  0  0  0  0  0  0  0  0
    5.4627   -1.9520    0.0000 C   0  0  0  0  0  0  0  0  0  0  0  0
    6.4664   -0.8373    0.0000 N   0  0  0  0  0  0  0  0  0  0  0  0
    6.0029    0.5893    0.0000 C   0  0  0  0  0  0  0  0  0  0  0  0
    4.5356    0.9012    0.0000 C   0  0  0  0  0  0  0  0  0  0  0  0
    4.0721    2.3277    0.0000 F   0  0  0  0  0  0  0  0  0  0  0  0
    3.5320   -0.2136    0.0000 C   0  0  0  0  0  0  0  0  0  0  0  0
    3.9955   -1.6402    0.0000 C   0  0  0  0  0  0  0  0  0  0  0  0
    2.9918   -2.7549    0.0000 C   0  0  0  0  0  0  0  0  0  0  0  0
    3.3037   -4.2221    0.0000 C   0  0  0  0  0  0  0  0  0  0  0  0
    2.0046   -4.9721    0.0000 C   0  0  0  0  0  0  0  0  0  0  0  0
    0.8899   -3.9684    0.0000 C   0  0  0  0  0  0  0  0  0  0  0  0
    1.5000   -2.5981    0.0000 N   0  0  0  0  0  0  0  0  0  0  0  0
    0.7500   -1.2990    0.0000 C   0  0  0  0  0  0  0  0  0  0  0  0
    1.5000    0.0000    0.0000 C   0  0  0  0  0  0  0  0  0  0  0  0
    0.7500    1.2990    0.0000 C   0  0  0  0  0  0  0  0  0  0  0  0
   -0.7500    1.2990    0.0000 N   0  0  0  0  0  0  0  0  0  0  0  0
   -1.7537    2.4138    0.0000 N   0  0  0  0  0  0  0  0  0  0  0  0
   -3.1240    1.8037    0.0000 C   0  0  0  0  0  0  0  0  0  0  0  0
   -2.9672    0.3119    0.0000 C   0  0  0  0  0  0  0  0  0  0  0  0
   -4.0819   -0.6918    0.0000 C   0  0  0  0  0  0  0  0  0  0  0  0
   -3.7701   -2.1590    0.0000 O   0  0  0  0  0  0  0  0  0  0  0  0
   -5.5085   -0.2283    0.0000 N   0  0  0  0  0  0  0  0  0  0  0  0
   -6.6232   -1.2320    0.0000 C   0  0  0  0  0  0  0  0  0  0  0  0
   -8.0498   -0.7685    0.0000 C   0  0  0  0  0  0  0  0  0  0  0  0
   -9.1645   -1.7722    0.0000 C   0  0  0  0  0  0  0  0  0  0  0  0
   -8.8527   -3.2394    0.0000 C   0  0  0  0  0  0  0  0  0  0  0  0
   -9.9674   -4.2431    0.0000 O   0  0  0  0  0  0  0  0  0  0  0  0
   -7.4261   -3.7029    0.0000 C   0  0  0  0  0  0  0  0  0  0  0  0
   -6.3114   -2.6992    0.0000 C   0  0  0  0  0  0  0  0  0  0  0  0
   -1.5000    0.0000    0.0000 C   0  0  0  0  0  0  0  0  0  0  0  0
   -0.7500   -1.2990    0.0000 N   0  0  0  0  0  0  0  0  0  0  0  0
  1  2  1  0
  2  3  1  0
  3  4  2  0
  4  5  1  0
  5  6  2  0
  6  7  1  0
  6  8  1  0
  8  9  2  0
 10  9  1  1
 10 11  1  0
 11 12  1  0
 12 13  1  0
 13 14  1  0
 14 15  1  0
 15 16  1  0
 16 17  2  0
 17 18  1  0
 18 19  1  0
 19 20  2  0
 20 21  1  0
 21 22  1  0
 22 23  2  0
 22 24  1  0
 24 25  1  0
 25 26  1  0
 26 27  1  0
 27 28  1  0
 28 29  1  0
 28 30  1  0
 30 31  1  0
 21 32  2  0
 32 33  1  0
  9  3  1  0
 14 10  1  0
 33 15  2  0
 32 18  1  0
 31 25  1  0
M  END
>  <Compound_ID>  (499) 
CHEMBL3904952

>  <Molecule Name>  (499) 
nan

>  <Molecular Weight>  (499) 
454.51

>  <AlogP>  (499) 
2.65

>  <Smiles>  (499) 
COc1ncc(F)cc1[C@H]1CCCN1c1ccn2ncc(C(=O)NC3CCC(O)CC3)c2n1

>  <Standard Type>  (499) 
IC50

>  <Standard Relation>  (499) 
'='

>  <Standard Units>  (499) 
nM

>  <Standard Value>  (499) 
0.9

>  <Assay ChEMBL ID>  (499) 
CHEMBL3887070

>  <Assay Description>  (499) 
ELISA Assay: An enzyme-linked immunosorbant assay (ELISA) was used to assess TrkA kinase activity in the presence of inhibitors. Immulon 4HBX 384-well microtiter plates (Thermo part #8755) were coated with a 0.025 mg/mL solution of poly (Glu, Ala, Tyr; 6:3:1; Sigma P3899). Various concentrations of test compound, 2.5 nM TrkA (Invitrogen Corp., histidine-tagged recombinant human TrkA, cytoplasmic domain), and 500 uM ATP were incubated for 25 minutes at ambient temperature in the coated plates while shaking The assay buffer consisted of 25 mM MOPS pH 7.5, 0.005% (v/v) Triton X-100 and 5 mM MgCl2. The reaction mixture was removed from the plate by washing with PBS containing 0.1% (v/v) Tween 20. The phosphorylated reaction product was detected using 0.2 ug/mL of a phosphotyrosine specific monoclonal antibody (clone PY20) conjugated to horseradish peroxidase in conjunction with the TMB Peroxidase Substrate System (KPL).

>  <BAO Format ID>  (499) 
BAO_0000357

>  <BAO Label>  (499) 
single protein format

>  <Assay Organism>  (499) 
None

>  <Target ChEMBL ID>  (499) 
CHEMBL2815

>  <Target Name>  (499) 
Nerve growth factor receptor Trk-A

>  <Target Organism>  (499) 
Homo sapiens

>  <Target Type>  (499) 
SINGLE PROTEIN

>  <Document ChEMBL ID>  (499) 
CHEMBL3638907

>  <Source Description>  (499) 
BindingDB Database

>  <Document Journal>  (499) 
nan

>  <Document Year>  (499) 
2014.0

>  <Active>  (499) 
1.0

>  <bits>  (499) 
<rdkit.DataStructs.cDataStructs.ExplicitBitVect object at 0x00000159F5470B30>

>  <Group>  (499) 
G2

$$$$

     RDKit          2D

 33 37  0  0  0  0  0  0  0  0999 V2000
   -2.9520   -4.6564    0.0000 C   0  0  0  0  0  0  0  0  0  0  0  0
   -2.6401   -3.1891    0.0000 C   0  0  0  0  0  0  0  0  0  0  0  0
   -3.7548   -2.1855    0.0000 C   0  0  0  0  0  0  0  0  0  0  0  0
   -1.2135   -2.7256    0.0000 N   0  0  0  0  0  0  0  0  0  0  0  0
   -0.0000   -3.6073    0.0000 C   0  0  0  0  0  0  0  0  0  0  0  0
    1.2135   -2.7256    0.0000 C   0  0  0  0  0  0  0  0  0  0  0  0
    2.6401   -3.1891    0.0000 C   0  0  0  0  0  0  0  0  0  0  0  0
    3.7548   -2.1855    0.0000 O   0  0  0  0  0  0  0  0  0  0  0  0
    2.9520   -4.6564    0.0000 C   0  0  0  0  0  0  0  0  0  0  0  0
    1.8373   -5.6601    0.0000 C   0  0  0  0  0  0  0  0  0  0  0  0
    2.1491   -7.1273    0.0000 N   0  0  0  0  0  0  0  0  0  0  0  0
    3.5757   -7.5908    0.0000 C   0  0  0  0  0  0  0  0  0  0  0  0
    4.6904   -6.5871    0.0000 C   0  0  0  0  0  0  0  0  0  0  0  0
    6.1170   -7.0506    0.0000 N   0  0  0  0  0  0  0  0  0  0  0  0
    6.4289   -8.5179    0.0000 C   0  0  0  0  0  0  0  0  0  0  0  0
    5.3142   -9.5216    0.0000 O   0  0  0  0  0  0  0  0  0  0  0  0
    7.8555   -8.9814    0.0000 C   0  0  0  0  0  0  0  0  0  0  0  0
    8.1673  -10.4486    0.0000 N   0  0  0  0  0  0  0  0  0  0  0  0
    9.5377  -11.0587    0.0000 C   0  0  0  0  0  0  0  0  0  0  0  0
    9.3809  -12.5505    0.0000 C   0  0  0  0  0  0  0  0  0  0  0  0
   10.4956  -13.5542    0.0000 C   0  0  0  0  0  0  0  0  0  0  0  0
   11.9628  -13.8661    0.0000 C   0  0  0  0  0  0  0  0  0  0  0  0
   10.9591  -14.9808    0.0000 C   0  0  0  0  0  0  0  0  0  0  0  0
    7.9136  -12.8624    0.0000 C   0  0  0  0  0  0  0  0  0  0  0  0
    7.1636  -11.5633    0.0000 N   0  0  0  0  0  0  0  0  0  0  0  0
    4.3786   -5.1199    0.0000 C   0  0  0  0  0  0  0  0  0  0  0  0
    0.7500   -1.2990    0.0000 C   0  0  0  0  0  0  0  0  0  0  0  0
    1.5000    0.0000    0.0000 C   0  0  0  0  0  0  0  0  0  0  0  0
    0.7500    1.2990    0.0000 N   0  0  0  0  0  0  0  0  0  0  0  0
   -0.7500    1.2990    0.0000 C   0  0  0  0  0  0  0  0  0  0  0  0
   -1.5000    0.0000    0.0000 C   0  0  0  0  0  0  0  0  0  0  0  0
   -3.0000    0.0000    0.0000 F   0  0  0  0  0  0  0  0  0  0  0  0
   -0.7500   -1.2990    0.0000 C   0  0  0  0  0  0  0  0  0  0  0  0
  1  2  1  0
  2  3  1  0
  2  4  1  0
  4  5  1  0
  5  6  2  0
  6  7  1  0
  7  8  2  0
  7  9  1  0
  9 10  2  0
 10 11  1  0
 11 12  2  0
 12 13  1  0
 13 14  1  0
 14 15  1  0
 15 16  2  0
 15 17  1  0
 17 18  1  0
 18 19  1  0
 19 20  2  0
 20 21  1  0
 21 22  1  0
 22 23  1  0
 20 24  1  0
 24 25  2  0
 13 26  2  0
  6 27  1  0
 27 28  2  0
 28 29  1  0
 29 30  2  0
 30 31  1  0
 31 32  1  0
 31 33  2  0
 33  4  1  0
 26  9  1  0
 33 27  1  0
 25 18  1  0
 23 21  1  0
M  END
>  <Compound_ID>  (500) 
CHEMBL3953376

>  <Molecule Name>  (500) 
nan

>  <Molecular Weight>  (500) 
446.49

>  <AlogP>  (500) 
4.09

>  <Smiles>  (500) 
CC(C)n1cc(C(=O)c2cncc(NC(=O)Cn3cc(C4CC4)cn3)c2)c2cncc(F)c21

>  <Standard Type>  (500) 
IC50

>  <Standard Relation>  (500) 
'='

>  <Standard Units>  (500) 
nM

>  <Standard Value>  (500) 
15.0

>  <Assay ChEMBL ID>  (500) 
CHEMBL3887111

>  <Assay Description>  (500) 
HTRF Assay: Isolated TRK Enzyme assays use the HTRF KinEASE-TK kit (Cisbio Cat#62TK0PEJ) with recombinant His-tagged cytoplasmic domains of each TRK receptor sourced from Invitrogen (see table below). This activity-assay measures the phosphorylation of tyrosine residues within a substrate from the HTRF kit which has been validated by Cisbio for a variety of tyrosine kinases including the TRK receptors.Assay Details: Invitrogen Amino FAC FAC Assay ReactionTarget Cat# acids enzyme ATP TimeTRKA PV3144 aa 441-4 nM 40 uM 35 min (NTRK1) 796 TRKB PV3616 aa 526-1 nM 1.4 uM 40 min (NTRK2) 838 TRKC PV3617 aa 510- 10 nM 15 uM 30 min (NTRK3) 8250.5 mM stock solutions of test compounds are prepared and serially diluted in 100% DMSO. A standard curve using the compound of Example 135 disclosed in WO2005/116035 of 150 uM is also prepared on each test plate. High percentage effect (HPE) is defined by 150 uM.

>  <BAO Format ID>  (500) 
BAO_0000357

>  <BAO Label>  (500) 
single protein format

>  <Assay Organism>  (500) 
None

>  <Target ChEMBL ID>  (500) 
CHEMBL2815

>  <Target Name>  (500) 
Nerve growth factor receptor Trk-A

>  <Target Organism>  (500) 
Homo sapiens

>  <Target Type>  (500) 
SINGLE PROTEIN

>  <Document ChEMBL ID>  (500) 
CHEMBL3886170

>  <Source Description>  (500) 
BindingDB Database

>  <Document Journal>  (500) 
nan

>  <Document Year>  (500) 
2015.0

>  <Active>  (500) 
1.0

>  <bits>  (500) 
<rdkit.DataStructs.cDataStructs.ExplicitBitVect object at 0x00000159F54734C0>

>  <Group>  (500) 
G2

$$$$

     RDKit          2D

 36 40  0  0  0  0  0  0  0  0999 V2000
   -6.6080   -3.1125    0.0000 C   0  0  0  0  0  0  0  0  0  0  0  0
   -5.1814   -2.6490    0.0000 O   0  0  0  0  0  0  0  0  0  0  0  0
   -4.0667   -3.6527    0.0000 C   0  0  0  0  0  0  0  0  0  0  0  0
   -2.6401   -3.1891    0.0000 C   0  0  0  0  0  0  0  0  0  0  0  0
   -2.1766   -4.6157    0.0000 C   0  0  0  0  0  0  0  0  0  0  0  0
   -3.1036   -1.7626    0.0000 C   0  0  0  0  0  0  0  0  0  0  0  0
   -1.2135   -2.7256    0.0000 N   0  0  0  0  0  0  0  0  0  0  0  0
   -0.0000   -3.6073    0.0000 C   0  0  0  0  0  0  0  0  0  0  0  0
    1.2135   -2.7256    0.0000 C   0  0  0  0  0  0  0  0  0  0  0  0
    2.6401   -3.1891    0.0000 C   0  0  0  0  0  0  0  0  0  0  0  0
    3.7548   -2.1855    0.0000 O   0  0  0  0  0  0  0  0  0  0  0  0
    2.9520   -4.6564    0.0000 C   0  0  0  0  0  0  0  0  0  0  0  0
    1.8373   -5.6601    0.0000 C   0  0  0  0  0  0  0  0  0  0  0  0
    2.1491   -7.1273    0.0000 N   0  0  0  0  0  0  0  0  0  0  0  0
    3.5757   -7.5908    0.0000 C   0  0  0  0  0  0  0  0  0  0  0  0
    4.6904   -6.5871    0.0000 C   0  0  0  0  0  0  0  0  0  0  0  0
    6.1170   -7.0506    0.0000 N   0  0  0  0  0  0  0  0  0  0  0  0
    6.4289   -8.5179    0.0000 C   0  0  0  0  0  0  0  0  0  0  0  0
    5.3142   -9.5216    0.0000 O   0  0  0  0  0  0  0  0  0  0  0  0
    7.8555   -8.9814    0.0000 C   0  0  0  0  0  0  0  0  0  0  0  0
    8.1673  -10.4486    0.0000 N   0  0  0  0  0  0  0  0  0  0  0  0
    9.5377  -11.0587    0.0000 C   0  0  0  0  0  0  0  0  0  0  0  0
    9.3809  -12.5505    0.0000 C   0  0  0  0  0  0  0  0  0  0  0  0
   10.4956  -13.5542    0.0000 C   0  0  0  0  0  0  0  0  0  0  0  0
   11.9628  -13.8661    0.0000 C   0  0  0  0  0  0  0  0  0  0  0  0
   10.9591  -14.9808    0.0000 C   0  0  0  0  0  0  0  0  0  0  0  0
    7.9136  -12.8624    0.0000 N   0  0  0  0  0  0  0  0  0  0  0  0
    7.1636  -11.5633    0.0000 N   0  0  0  0  0  0  0  0  0  0  0  0
    4.3786   -5.1199    0.0000 C   0  0  0  0  0  0  0  0  0  0  0  0
    0.7500   -1.2990    0.0000 C   0  0  0  0  0  0  0  0  0  0  0  0
    1.5000    0.0000    0.0000 C   0  0  0  0  0  0  0  0  0  0  0  0
    0.7500    1.2990    0.0000 N   0  0  0  0  0  0  0  0  0  0  0  0
   -0.7500    1.2990    0.0000 C   0  0  0  0  0  0  0  0  0  0  0  0
   -1.5000    2.5981    0.0000 N   0  0  0  0  0  0  0  0  0  0  0  0
   -1.5000    0.0000    0.0000 N   0  0  0  0  0  0  0  0  0  0  0  0
   -0.7500   -1.2990    0.0000 C   0  0  0  0  0  0  0  0  0  0  0  0
  1  2  1  0
  2  3  1  0
  3  4  1  0
  4  5  1  0
  4  6  1  0
  4  7  1  0
  7  8  1  0
  8  9  2  0
  9 10  1  0
 10 11  2  0
 10 12  1  0
 12 13  2  0
 13 14  1  0
 14 15  2  0
 15 16  1  0
 16 17  1  0
 17 18  1  0
 18 19  2  0
 18 20  1  0
 20 21  1  0
 21 22  1  0
 22 23  2  0
 23 24  1  0
 24 25  1  0
 25 26  1  0
 23 27  1  0
 27 28  2  0
 16 29  2  0
  9 30  1  0
 30 31  2  0
 31 32  1  0
 32 33  2  0
 33 34  1  0
 33 35  1  0
 35 36  2  0
 36  7  1  0
 29 12  1  0
 36 30  1  0
 28 21  1  0
 26 24  1  0
M  END
>  <Compound_ID>  (501) 
CHEMBL3671426

>  <Molecule Name>  (501) 
nan

>  <Molecular Weight>  (501) 
489.54

>  <AlogP>  (501) 
2.13

>  <Smiles>  (501) 
COCC(C)(C)n1cc(C(=O)c2cncc(NC(=O)Cn3cc(C4CC4)nn3)c2)c2cnc(N)nc21

>  <Standard Type>  (501) 
IC50

>  <Standard Relation>  (501) 
'='

>  <Standard Units>  (501) 
nM

>  <Standard Value>  (501) 
7.62

>  <Assay ChEMBL ID>  (501) 
CHEMBL3887033

>  <Assay Description>  (501) 
Enzyme Assay: Isolated TRK Enzyme assays use the HTRF KinEASE-TK kit (Cisbio Cat# 62TK0PEJ) with recombinant His-tagged cytoplasmic domains of each TRK receptor sourced from Invitrogen (see table below). This activity-assay measures the phosphorylation of tyrosine residues within a substrate from the HTRF kit which has been validated by Cisbio for a variety of tyrosine kinases including the TRK receptors. Assay details: Target:TRKA; Invitrogen Cat# PV3144; Amino acids:aa 441-796; FAC enzyme:4nM; FAC ATP:40uM; Assay Reaction Time:35min.

>  <BAO Format ID>  (501) 
BAO_0000357

>  <BAO Label>  (501) 
single protein format

>  <Assay Organism>  (501) 
None

>  <Target ChEMBL ID>  (501) 
CHEMBL2815

>  <Target Name>  (501) 
Nerve growth factor receptor Trk-A

>  <Target Organism>  (501) 
Homo sapiens

>  <Target Type>  (501) 
SINGLE PROTEIN

>  <Document ChEMBL ID>  (501) 
CHEMBL3639348

>  <Source Description>  (501) 
BindingDB Database

>  <Document Journal>  (501) 
nan

>  <Document Year>  (501) 
2014.0

>  <Active>  (501) 
1.0

>  <bits>  (501) 
<rdkit.DataStructs.cDataStructs.ExplicitBitVect object at 0x00000159F5471A80>

>  <Group>  (501) 
G2

$$$$

     RDKit          2D

 35 38  0  0  0  0  0  0  0  0999 V2000
   -2.1766   -4.6157    0.0000 C   0  0  0  0  0  0  0  0  0  0  0  0
   -2.6401   -3.1891    0.0000 C   0  0  0  0  0  0  0  0  0  0  0  0
   -3.1036   -1.7626    0.0000 C   0  0  0  0  0  0  0  0  0  0  0  0
   -4.0667   -3.6527    0.0000 C   0  0  0  0  0  0  0  0  0  0  0  0
   -5.1814   -2.6490    0.0000 O   0  0  0  0  0  0  0  0  0  0  0  0
   -1.2135   -2.7256    0.0000 N   0  0  0  0  0  0  0  0  0  0  0  0
   -0.0000   -3.6073    0.0000 C   0  0  0  0  0  0  0  0  0  0  0  0
    1.2135   -2.7256    0.0000 C   0  0  0  0  0  0  0  0  0  0  0  0
    2.6401   -3.1891    0.0000 C   0  0  0  0  0  0  0  0  0  0  0  0
    3.7548   -2.1855    0.0000 O   0  0  0  0  0  0  0  0  0  0  0  0
    2.9520   -4.6564    0.0000 C   0  0  0  0  0  0  0  0  0  0  0  0
    1.8373   -5.6601    0.0000 C   0  0  0  0  0  0  0  0  0  0  0  0
    2.1491   -7.1273    0.0000 C   0  0  0  0  0  0  0  0  0  0  0  0
    1.0344   -8.1310    0.0000 N   0  0  0  0  0  0  0  0  0  0  0  0
   -0.3922   -7.6675    0.0000 C   0  0  0  0  0  0  0  0  0  0  0  0
   -0.7040   -6.2002    0.0000 O   0  0  0  0  0  0  0  0  0  0  0  0
   -1.5069   -8.6712    0.0000 C   0  0  0  0  0  0  0  0  0  0  0  0
   -2.9335   -8.2076    0.0000 N   0  0  0  0  0  0  0  0  0  0  0  0
   -4.1470   -9.0893    0.0000 C   0  0  0  0  0  0  0  0  0  0  0  0
   -5.3605   -8.2076    0.0000 C   0  0  0  0  0  0  0  0  0  0  0  0
   -6.7871   -8.6712    0.0000 C   0  0  0  0  0  0  0  0  0  0  0  0
   -8.2137   -9.1347    0.0000 F   0  0  0  0  0  0  0  0  0  0  0  0
   -7.2506   -7.2446    0.0000 F   0  0  0  0  0  0  0  0  0  0  0  0
   -6.3236  -10.0977    0.0000 F   0  0  0  0  0  0  0  0  0  0  0  0
   -4.8970   -6.7810    0.0000 N   0  0  0  0  0  0  0  0  0  0  0  0
   -3.3970   -6.7810    0.0000 N   0  0  0  0  0  0  0  0  0  0  0  0
    3.5757   -7.5908    0.0000 C   0  0  0  0  0  0  0  0  0  0  0  0
    4.6904   -6.5871    0.0000 C   0  0  0  0  0  0  0  0  0  0  0  0
    4.3786   -5.1199    0.0000 N   0  0  0  0  0  0  0  0  0  0  0  0
    0.7500   -1.2990    0.0000 C   0  0  0  0  0  0  0  0  0  0  0  0
    1.5000    0.0000    0.0000 C   0  0  0  0  0  0  0  0  0  0  0  0
    0.7500    1.2990    0.0000 N   0  0  0  0  0  0  0  0  0  0  0  0
   -0.7500    1.2990    0.0000 C   0  0  0  0  0  0  0  0  0  0  0  0
   -1.5000    0.0000    0.0000 C   0  0  0  0  0  0  0  0  0  0  0  0
   -0.7500   -1.2990    0.0000 C   0  0  0  0  0  0  0  0  0  0  0  0
  1  2  1  0
  2  3  1  0
  2  4  1  0
  4  5  1  0
  2  6  1  0
  6  7  1  0
  7  8  2  0
  8  9  1  0
  9 10  2  0
  9 11  1  0
 11 12  2  0
 12 13  1  0
 13 14  1  0
 14 15  1  0
 15 16  2  0
 15 17  1  0
 17 18  1  0
 18 19  1  0
 19 20  2  0
 20 21  1  0
 21 22  1  0
 21 23  1  0
 21 24  1  0
 20 25  1  0
 25 26  2  0
 13 27  2  0
 27 28  1  0
 28 29  2  0
  8 30  1  0
 30 31  2  0
 31 32  1  0
 32 33  2  0
 33 34  1  0
 34 35  2  0
 35  6  1  0
 29 11  1  0
 35 30  1  0
 26 18  1  0
M  END
>  <Compound_ID>  (502) 
CHEMBL3936350

>  <Molecule Name>  (502) 
nan

>  <Molecular Weight>  (502) 
487.44

>  <AlogP>  (502) 
2.64

>  <Smiles>  (502) 
CC(C)(CO)n1cc(C(=O)c2cc(NC(=O)Cn3cc(C(F)(F)F)nn3)ccn2)c2cnccc21

>  <Standard Type>  (502) 
IC50

>  <Standard Relation>  (502) 
'='

>  <Standard Units>  (502) 
nM

>  <Standard Value>  (502) 
79.3

>  <Assay ChEMBL ID>  (502) 
CHEMBL3887111

>  <Assay Description>  (502) 
HTRF Assay: Isolated TRK Enzyme assays use the HTRF KinEASE-TK kit (Cisbio Cat#62TK0PEJ) with recombinant His-tagged cytoplasmic domains of each TRK receptor sourced from Invitrogen (see table below). This activity-assay measures the phosphorylation of tyrosine residues within a substrate from the HTRF kit which has been validated by Cisbio for a variety of tyrosine kinases including the TRK receptors.Assay Details: Invitrogen Amino FAC FAC Assay ReactionTarget Cat# acids enzyme ATP TimeTRKA PV3144 aa 441-4 nM 40 uM 35 min (NTRK1) 796 TRKB PV3616 aa 526-1 nM 1.4 uM 40 min (NTRK2) 838 TRKC PV3617 aa 510- 10 nM 15 uM 30 min (NTRK3) 8250.5 mM stock solutions of test compounds are prepared and serially diluted in 100% DMSO. A standard curve using the compound of Example 135 disclosed in WO2005/116035 of 150 uM is also prepared on each test plate. High percentage effect (HPE) is defined by 150 uM.

>  <BAO Format ID>  (502) 
BAO_0000357

>  <BAO Label>  (502) 
single protein format

>  <Assay Organism>  (502) 
None

>  <Target ChEMBL ID>  (502) 
CHEMBL2815

>  <Target Name>  (502) 
Nerve growth factor receptor Trk-A

>  <Target Organism>  (502) 
Homo sapiens

>  <Target Type>  (502) 
SINGLE PROTEIN

>  <Document ChEMBL ID>  (502) 
CHEMBL3886170

>  <Source Description>  (502) 
BindingDB Database

>  <Document Journal>  (502) 
nan

>  <Document Year>  (502) 
2015.0

>  <Active>  (502) 
1.0

>  <bits>  (502) 
<rdkit.DataStructs.cDataStructs.ExplicitBitVect object at 0x00000159F5470BA0>

>  <Group>  (502) 
G2

$$$$

     RDKit          2D

 37 41  0  0  0  0  0  0  0  0999 V2000
   -5.3605    2.7564    0.0000 C   0  0  0  0  0  0  0  0  0  0  0  0
   -4.2458    1.7527    0.0000 O   0  0  0  0  0  0  0  0  0  0  0  0
   -4.5577    0.2855    0.0000 C   0  0  0  0  0  0  0  0  0  0  0  0
   -3.4430   -0.7182    0.0000 C   0  0  0  0  0  0  0  0  0  0  0  0
   -3.7548   -2.1855    0.0000 C   0  0  0  0  0  0  0  0  0  0  0  0
   -2.6401   -3.1891    0.0000 C   0  0  0  0  0  0  0  0  0  0  0  0
   -1.2135   -2.7256    0.0000 N   0  0  0  0  0  0  0  0  0  0  0  0
   -0.0000   -3.6073    0.0000 C   0  0  0  0  0  0  0  0  0  0  0  0
    0.0000   -5.1073    0.0000 N   0  0  0  0  0  0  0  0  0  0  0  0
    1.2135   -2.7256    0.0000 N   0  0  0  0  0  0  0  0  0  0  0  0
    0.7500   -1.2990    0.0000 C   0  0  0  0  0  0  0  0  0  0  0  0
    1.5000    0.0000    0.0000 C   0  0  0  0  0  0  0  0  0  0  0  0
    0.7500    1.2990    0.0000 C   0  0  0  0  0  0  0  0  0  0  0  0
    1.5000    2.5981    0.0000 C   0  0  0  0  0  0  0  0  0  0  0  0
    0.8899    3.9684    0.0000 C   0  0  0  0  0  0  0  0  0  0  0  0
    2.0046    4.9721    0.0000 N   0  0  0  0  0  0  0  0  0  0  0  0
    3.3037    4.2221    0.0000 N   0  0  0  0  0  0  0  0  0  0  0  0
    4.6740    4.8322    0.0000 C   0  0  0  0  0  0  0  0  0  0  0  0
    2.9918    2.7549    0.0000 C   0  0  0  0  0  0  0  0  0  0  0  0
   -0.7500    1.2990    0.0000 C   0  0  0  0  0  0  0  0  0  0  0  0
   -1.5000    0.0000    0.0000 N   0  0  0  0  0  0  0  0  0  0  0  0
   -0.7500   -1.2990    0.0000 C   0  0  0  0  0  0  0  0  0  0  0  0
   -5.1814   -2.6490    0.0000 C   0  0  0  0  0  0  0  0  0  0  0  0
   -6.2961   -1.6453    0.0000 C   0  0  0  0  0  0  0  0  0  0  0  0
   -5.9843   -0.1781    0.0000 C   0  0  0  0  0  0  0  0  0  0  0  0
   -7.0990    0.8256    0.0000 O   0  0  0  0  0  0  0  0  0  0  0  0
   -8.5256    0.3621    0.0000 C   0  0  0  0  0  0  0  0  0  0  0  0
   -9.6403    1.3658    0.0000 C   0  0  0  0  0  0  0  0  0  0  0  0
   -9.3284    2.8330    0.0000 C   0  0  0  0  0  0  0  0  0  0  0  0
  -10.4431    3.8367    0.0000 C   0  0  0  0  0  0  0  0  0  0  0  0
  -11.8697    3.3732    0.0000 C   0  0  0  0  0  0  0  0  0  0  0  0
  -12.9844    4.3769    0.0000 C   0  0  0  0  0  0  0  0  0  0  0  0
  -14.0992    5.3806    0.0000 F   0  0  0  0  0  0  0  0  0  0  0  0
  -11.9807    5.4916    0.0000 F   0  0  0  0  0  0  0  0  0  0  0  0
  -13.9881    3.2622    0.0000 F   0  0  0  0  0  0  0  0  0  0  0  0
  -12.1816    1.9060    0.0000 N   0  0  0  0  0  0  0  0  0  0  0  0
  -11.0669    0.9023    0.0000 C   0  0  0  0  0  0  0  0  0  0  0  0
  1  2  1  0
  2  3  1  0
  3  4  2  0
  4  5  1  0
  5  6  1  0
  6  7  1  0
  7  8  1  0
  8  9  1  0
  8 10  2  0
 10 11  1  0
 11 12  2  0
 12 13  1  0
 13 14  1  0
 14 15  1  0
 15 16  2  0
 16 17  1  0
 17 18  1  0
 17 19  1  0
 13 20  2  0
 20 21  1  0
 21 22  2  0
  5 23  2  0
 23 24  1  0
 24 25  2  0
 25 26  1  0
 26 27  1  0
 27 28  1  0
 28 29  2  0
 29 30  1  0
 30 31  2  0
 31 32  1  0
 32 33  1  0
 32 34  1  0
 32 35  1  0
 31 36  1  0
 36 37  2  0
 25  3  1  0
 37 28  1  0
 22  7  1  0
 22 11  1  0
 19 14  2  0
M  END
>  <Compound_ID>  (503) 
CHEMBL3673477

>  <Molecule Name>  (503) 
nan

>  <Molecular Weight>  (503) 
509.49

>  <AlogP>  (503) 
4.46

>  <Smiles>  (503) 
COc1cc(Cn2c(N)nc3cc(-c4cnn(C)c4)cnc32)ccc1OCc1ccc(C(F)(F)F)nc1

>  <Standard Type>  (503) 
IC50

>  <Standard Relation>  (503) 
'='

>  <Standard Units>  (503) 
nM

>  <Standard Value>  (503) 
0.2

>  <Assay ChEMBL ID>  (503) 
CHEMBL3887112

>  <Assay Description>  (503) 
Inhibition Assay: Reagents and consumables were purchased from Sigma Aldrich, Carna Biosciences, or Caliper Life Sciences. All assay reaction conditions for IC50 determinations were within the linear range with respect to time and enzyme concentration. In a 384 well polypropylene plate, TrkA (0.4 nM, Carna 08-186) was pre-incubated in a 100 mM Hepes-NaOH pH 7.5 buffer containing 0.01% Triton X-100, 10 mM MgCl2, 0.1% BSA, 1 mM DTT, 10 uM sodium orthovanadate and 10 uM beta-glycerophosphate and compound with a concentration of 2.5% DMSO for 15 minutes at room temperature. The reaction was initiated with an equal volume of peptide substrate (Caliper Life Sciences catalog no. 760430) and ATP in the aforementioned buffer. The final concentrations in the reaction were 200 pM TrkA, 1.5 uM peptide substrate and 55 uM ATP (ATP Km). The reaction was incubated at room temperature for 180 minutes and terminated with a buffer containing excess EDTA (100 mM Hepes-NaOH pH 7.5, 0.02% Brij.

>  <BAO Format ID>  (503) 
BAO_0000357

>  <BAO Label>  (503) 
single protein format

>  <Assay Organism>  (503) 
None

>  <Target ChEMBL ID>  (503) 
CHEMBL2815

>  <Target Name>  (503) 
Nerve growth factor receptor Trk-A

>  <Target Organism>  (503) 
Homo sapiens

>  <Target Type>  (503) 
SINGLE PROTEIN

>  <Document ChEMBL ID>  (503) 
CHEMBL3638818

>  <Source Description>  (503) 
BindingDB Database

>  <Document Journal>  (503) 
nan

>  <Document Year>  (503) 
2015.0

>  <Active>  (503) 
1.0

>  <bits>  (503) 
<rdkit.DataStructs.cDataStructs.ExplicitBitVect object at 0x00000159F54702E0>

>  <Group>  (503) 
G2

$$$$

     RDKit          2D

 33 37  0  0  0  0  0  0  0  0999 V2000
   -5.3605    2.7564    0.0000 C   0  0  0  0  0  0  0  0  0  0  0  0
   -4.2458    1.7527    0.0000 O   0  0  0  0  0  0  0  0  0  0  0  0
   -4.5577    0.2855    0.0000 C   0  0  0  0  0  0  0  0  0  0  0  0
   -3.4430   -0.7182    0.0000 C   0  0  0  0  0  0  0  0  0  0  0  0
   -3.7548   -2.1855    0.0000 C   0  0  0  0  0  0  0  0  0  0  0  0
   -2.6401   -3.1891    0.0000 C   0  0  0  0  0  0  0  0  0  0  0  0
   -1.2135   -2.7256    0.0000 N   0  0  0  0  0  0  0  0  0  0  0  0
   -0.0000   -3.6073    0.0000 C   0  0  0  0  0  0  0  0  0  0  0  0
    0.0000   -5.1073    0.0000 N   0  0  0  0  0  0  0  0  0  0  0  0
    1.2135   -2.7256    0.0000 N   0  0  0  0  0  0  0  0  0  0  0  0
    0.7500   -1.2990    0.0000 C   0  0  0  0  0  0  0  0  0  0  0  0
    1.5000    0.0000    0.0000 C   0  0  0  0  0  0  0  0  0  0  0  0
    0.7500    1.2990    0.0000 C   0  0  0  0  0  0  0  0  0  0  0  0
    1.5000    2.5981    0.0000 C   0  0  0  0  0  0  0  0  0  0  0  0
    0.8899    3.9684    0.0000 C   0  0  0  0  0  0  0  0  0  0  0  0
    2.0046    4.9721    0.0000 N   0  0  0  0  0  0  0  0  0  0  0  0
    3.3037    4.2221    0.0000 N   0  0  0  0  0  0  0  0  0  0  0  0
    4.6740    4.8322    0.0000 C   0  0  0  0  0  0  0  0  0  0  0  0
    2.9918    2.7549    0.0000 C   0  0  0  0  0  0  0  0  0  0  0  0
   -0.7500    1.2990    0.0000 C   0  0  0  0  0  0  0  0  0  0  0  0
   -1.5000    0.0000    0.0000 N   0  0  0  0  0  0  0  0  0  0  0  0
   -0.7500   -1.2990    0.0000 C   0  0  0  0  0  0  0  0  0  0  0  0
   -5.1814   -2.6490    0.0000 C   0  0  0  0  0  0  0  0  0  0  0  0
   -6.2961   -1.6453    0.0000 C   0  0  0  0  0  0  0  0  0  0  0  0
   -5.9843   -0.1781    0.0000 C   0  0  0  0  0  0  0  0  0  0  0  0
   -7.0990    0.8256    0.0000 O   0  0  0  0  0  0  0  0  0  0  0  0
   -8.5256    0.3621    0.0000 C   0  0  0  0  0  0  0  0  0  0  0  0
   -9.6403    1.3658    0.0000 C   0  0  0  0  0  0  0  0  0  0  0  0
  -11.1075    1.0539    0.0000 C   0  0  0  0  0  0  0  0  0  0  0  0
  -11.8575    2.3530    0.0000 S   0  0  0  0  0  0  0  0  0  0  0  0
  -10.8538    3.4677    0.0000 C   0  0  0  0  0  0  0  0  0  0  0  0
  -11.1657    4.9349    0.0000 C   0  0  0  0  0  0  0  0  0  0  0  0
   -9.4835    2.8576    0.0000 N   0  0  0  0  0  0  0  0  0  0  0  0
  1  2  1  0
  2  3  1  0
  3  4  2  0
  4  5  1  0
  5  6  1  0
  6  7  1  0
  7  8  1  0
  8  9  1  0
  8 10  2  0
 10 11  1  0
 11 12  2  0
 12 13  1  0
 13 14  1  0
 14 15  1  0
 15 16  2  0
 16 17  1  0
 17 18  1  0
 17 19  1  0
 13 20  2  0
 20 21  1  0
 21 22  2  0
  5 23  2  0
 23 24  1  0
 24 25  2  0
 25 26  1  0
 26 27  1  0
 27 28  1  0
 28 29  2  0
 29 30  1  0
 30 31  1  0
 31 32  1  0
 31 33  2  0
 25  3  1  0
 33 28  1  0
 22  7  1  0
 22 11  1  0
 19 14  2  0
M  END
>  <Compound_ID>  (504) 
CHEMBL3673480

>  <Molecule Name>  (504) 
nan

>  <Molecular Weight>  (504) 
461.55

>  <AlogP>  (504) 
3.81

>  <Smiles>  (504) 
COc1cc(Cn2c(N)nc3cc(-c4cnn(C)c4)cnc32)ccc1OCc1csc(C)n1

>  <Standard Type>  (504) 
IC50

>  <Standard Relation>  (504) 
'='

>  <Standard Units>  (504) 
nM

>  <Standard Value>  (504) 
0.5

>  <Assay ChEMBL ID>  (504) 
CHEMBL3887112

>  <Assay Description>  (504) 
Inhibition Assay: Reagents and consumables were purchased from Sigma Aldrich, Carna Biosciences, or Caliper Life Sciences. All assay reaction conditions for IC50 determinations were within the linear range with respect to time and enzyme concentration. In a 384 well polypropylene plate, TrkA (0.4 nM, Carna 08-186) was pre-incubated in a 100 mM Hepes-NaOH pH 7.5 buffer containing 0.01% Triton X-100, 10 mM MgCl2, 0.1% BSA, 1 mM DTT, 10 uM sodium orthovanadate and 10 uM beta-glycerophosphate and compound with a concentration of 2.5% DMSO for 15 minutes at room temperature. The reaction was initiated with an equal volume of peptide substrate (Caliper Life Sciences catalog no. 760430) and ATP in the aforementioned buffer. The final concentrations in the reaction were 200 pM TrkA, 1.5 uM peptide substrate and 55 uM ATP (ATP Km). The reaction was incubated at room temperature for 180 minutes and terminated with a buffer containing excess EDTA (100 mM Hepes-NaOH pH 7.5, 0.02% Brij.

>  <BAO Format ID>  (504) 
BAO_0000357

>  <BAO Label>  (504) 
single protein format

>  <Assay Organism>  (504) 
None

>  <Target ChEMBL ID>  (504) 
CHEMBL2815

>  <Target Name>  (504) 
Nerve growth factor receptor Trk-A

>  <Target Organism>  (504) 
Homo sapiens

>  <Target Type>  (504) 
SINGLE PROTEIN

>  <Document ChEMBL ID>  (504) 
CHEMBL3638818

>  <Source Description>  (504) 
BindingDB Database

>  <Document Journal>  (504) 
nan

>  <Document Year>  (504) 
2015.0

>  <Active>  (504) 
1.0

>  <bits>  (504) 
<rdkit.DataStructs.cDataStructs.ExplicitBitVect object at 0x00000159F5473C30>

>  <Group>  (504) 
G2

$$$$

     RDKit          2D

 34 39  0  0  0  0  0  0  0  0999 V2000
    3.0000    0.0000    0.0000 N   0  0  0  0  0  0  0  0  0  0  0  0
    1.5000    0.0000    0.0000 C   0  0  0  0  0  0  0  0  0  0  0  0
    0.7500   -1.2990    0.0000 N   0  0  0  0  0  0  0  0  0  0  0  0
   -0.7500   -1.2990    0.0000 C   0  0  0  0  0  0  0  0  0  0  0  0
   -1.5000    0.0000    0.0000 C   0  0  0  0  0  0  0  0  0  0  0  0
   -2.9672    0.3119    0.0000 C   0  0  0  0  0  0  0  0  0  0  0  0
   -4.0819   -0.6918    0.0000 C   0  0  0  0  0  0  0  0  0  0  0  0
   -3.7701   -2.1590    0.0000 O   0  0  0  0  0  0  0  0  0  0  0  0
   -5.5085   -0.2283    0.0000 C   0  0  0  0  0  0  0  0  0  0  0  0
   -5.8204    1.2389    0.0000 C   0  0  0  0  0  0  0  0  0  0  0  0
   -7.2470    1.7024    0.0000 N   0  0  0  0  0  0  0  0  0  0  0  0
   -8.3617    0.6987    0.0000 C   0  0  0  0  0  0  0  0  0  0  0  0
   -8.0498   -0.7685    0.0000 C   0  0  0  0  0  0  0  0  0  0  0  0
   -9.1645   -1.7722    0.0000 N   0  0  0  0  0  0  0  0  0  0  0  0
  -10.5911   -1.3086    0.0000 C   0  0  0  0  0  0  0  0  0  0  0  0
  -10.9030    0.1586    0.0000 O   0  0  0  0  0  0  0  0  0  0  0  0
  -11.7058   -2.3123    0.0000 C   0  0  0  0  0  0  0  0  0  0  0  0
  -13.1324   -1.8488    0.0000 C   0  0  0  0  0  0  0  0  0  0  0  0
  -13.4443   -0.3816    0.0000 C   0  0  0  0  0  0  0  0  0  0  0  0
  -14.8709    0.0819    0.0000 C   0  0  0  0  0  0  0  0  0  0  0  0
  -15.9856   -0.9218    0.0000 C   0  0  0  0  0  0  0  0  0  0  0  0
  -17.4122   -0.4582    0.0000 F   0  0  0  0  0  0  0  0  0  0  0  0
  -15.6737   -2.3890    0.0000 C   0  0  0  0  0  0  0  0  0  0  0  0
  -14.2471   -2.8525    0.0000 N   0  0  0  0  0  0  0  0  0  0  0  0
   -6.6232   -1.2320    0.0000 C   0  0  0  0  0  0  0  0  0  0  0  0
   -3.1240    1.8037    0.0000 C   0  0  0  0  0  0  0  0  0  0  0  0
   -1.7537    2.4138    0.0000 N   0  0  0  0  0  0  0  0  0  0  0  0
   -1.4418    3.8810    0.0000 C   0  0  0  0  0  0  0  0  0  0  0  0
   -0.1838    4.6979    0.0000 C   0  0  0  0  0  0  0  0  0  0  0  0
   -1.0008    5.9559    0.0000 C   0  0  0  0  0  0  0  0  0  0  0  0
   -2.2588    5.1390    0.0000 C   0  0  0  0  0  0  0  0  0  0  0  0
   -0.8894    4.8479    0.0000 C   0  0  0  0  0  0  0  0  0  0  0  0
   -0.7500    1.2990    0.0000 C   0  0  0  0  0  0  0  0  0  0  0  0
    0.7500    1.2990    0.0000 N   0  0  0  0  0  0  0  0  0  0  0  0
  1  2  1  0
  2  3  2  0
  3  4  1  0
  4  5  2  0
  5  6  1  0
  6  7  1  0
  7  8  2  0
  7  9  1  0
  9 10  2  0
 10 11  1  0
 11 12  2  0
 12 13  1  0
 13 14  1  0
 14 15  1  0
 15 16  2  0
 15 17  1  0
 17 18  1  0
 18 19  2  0
 19 20  1  0
 20 21  2  0
 21 22  1  0
 21 23  1  0
 23 24  2  0
 13 25  2  0
  6 26  2  0
 26 27  1  0
 27 28  1  0
 28 29  1  0
 29 30  1  0
 30 31  1  0
 30 32  1  0
 27 33  1  0
 33 34  2  0
 34  2  1  0
 33  5  1  0
 25  9  1  0
 31 28  1  0
 24 18  1  0
 32 28  1  0
M  END
>  <Compound_ID>  (505) 
CHEMBL3671461

>  <Molecule Name>  (505) 
nan

>  <Molecular Weight>  (505) 
457.47

>  <AlogP>  (505) 
2.86

>  <Smiles>  (505) 
Nc1ncc2c(C(=O)c3cncc(NC(=O)Cc4ccc(F)cn4)c3)cn(C34CC(C3)C4)c2n1

>  <Standard Type>  (505) 
IC50

>  <Standard Relation>  (505) 
'='

>  <Standard Units>  (505) 
nM

>  <Standard Value>  (505) 
6.07

>  <Assay ChEMBL ID>  (505) 
CHEMBL3887033

>  <Assay Description>  (505) 
Enzyme Assay: Isolated TRK Enzyme assays use the HTRF KinEASE-TK kit (Cisbio Cat# 62TK0PEJ) with recombinant His-tagged cytoplasmic domains of each TRK receptor sourced from Invitrogen (see table below). This activity-assay measures the phosphorylation of tyrosine residues within a substrate from the HTRF kit which has been validated by Cisbio for a variety of tyrosine kinases including the TRK receptors. Assay details: Target:TRKA; Invitrogen Cat# PV3144; Amino acids:aa 441-796; FAC enzyme:4nM; FAC ATP:40uM; Assay Reaction Time:35min.

>  <BAO Format ID>  (505) 
BAO_0000357

>  <BAO Label>  (505) 
single protein format

>  <Assay Organism>  (505) 
None

>  <Target ChEMBL ID>  (505) 
CHEMBL2815

>  <Target Name>  (505) 
Nerve growth factor receptor Trk-A

>  <Target Organism>  (505) 
Homo sapiens

>  <Target Type>  (505) 
SINGLE PROTEIN

>  <Document ChEMBL ID>  (505) 
CHEMBL3639348

>  <Source Description>  (505) 
BindingDB Database

>  <Document Journal>  (505) 
nan

>  <Document Year>  (505) 
2014.0

>  <Active>  (505) 
1.0

>  <bits>  (505) 
<rdkit.DataStructs.cDataStructs.ExplicitBitVect object at 0x00000159F5473BC0>

>  <Group>  (505) 
G2

$$$$

     RDKit          2D

 30 33  0  0  0  0  0  0  0  0999 V2000
    3.7500   -1.2990    0.0000 C   0  0  0  0  0  0  0  0  0  0  0  0
    3.0000   -2.5981    0.0000 C   0  0  0  0  0  0  0  0  0  0  0  0
    3.7500   -3.8971    0.0000 C   0  0  0  0  0  0  0  0  0  0  0  0
    5.2500   -3.8971    0.0000 C   0  0  0  0  0  0  0  0  0  0  0  0
    6.0000   -5.1962    0.0000 C   0  0  0  0  0  0  0  0  0  0  0  0
    7.5000   -5.1962    0.0000 F   0  0  0  0  0  0  0  0  0  0  0  0
    5.2500   -6.4952    0.0000 C   0  0  0  0  0  0  0  0  0  0  0  0
    3.7500   -6.4952    0.0000 C   0  0  0  0  0  0  0  0  0  0  0  0
    3.0000   -5.1962    0.0000 C   0  0  0  0  0  0  0  0  0  0  0  0
    1.5000   -5.1962    0.0000 F   0  0  0  0  0  0  0  0  0  0  0  0
    1.5000   -2.5981    0.0000 N   0  0  0  0  0  0  0  0  0  0  0  0
    0.7500   -3.8971    0.0000 C   0  0  0  0  0  0  0  0  0  0  0  0
    0.7500   -1.2990    0.0000 C   0  0  0  0  0  0  0  0  0  0  0  0
    1.5000    0.0000    0.0000 C   0  0  0  0  0  0  0  0  0  0  0  0
    0.7500    1.2990    0.0000 C   0  0  0  0  0  0  0  0  0  0  0  0
   -0.7500    1.2990    0.0000 N   0  0  0  0  0  0  0  0  0  0  0  0
   -1.7537    2.4138    0.0000 N   0  0  0  0  0  0  0  0  0  0  0  0
   -3.1240    1.8037    0.0000 C   0  0  0  0  0  0  0  0  0  0  0  0
   -2.9672    0.3119    0.0000 C   0  0  0  0  0  0  0  0  0  0  0  0
   -4.0819   -0.6918    0.0000 N   0  0  0  0  0  0  0  0  0  0  0  0
   -5.5085   -0.2283    0.0000 C   0  0  0  0  0  0  0  0  0  0  0  0
   -5.8204    1.2389    0.0000 S   0  0  0  0  0  0  0  0  0  0  0  0
   -6.6232   -1.2320    0.0000 N   0  0  0  0  0  0  0  0  0  0  0  0
   -6.4664   -2.7238    0.0000 C   0  0  0  0  0  0  0  0  0  0  0  0
   -7.8368   -3.3339    0.0000 C   0  0  0  0  0  0  0  0  0  0  0  0
   -8.8405   -2.2192    0.0000 C   0  0  0  0  0  0  0  0  0  0  0  0
  -10.3322   -2.3760    0.0000 O   0  0  0  0  0  0  0  0  0  0  0  0
   -8.0905   -0.9201    0.0000 C   0  0  0  0  0  0  0  0  0  0  0  0
   -1.5000    0.0000    0.0000 C   0  0  0  0  0  0  0  0  0  0  0  0
   -0.7500   -1.2990    0.0000 N   0  0  0  0  0  0  0  0  0  0  0  0
  2  1  1  6
  2  3  1  0
  3  4  2  0
  4  5  1  0
  5  6  1  0
  5  7  2  0
  7  8  1  0
  8  9  2  0
  9 10  1  0
  2 11  1  0
 11 12  1  0
 11 13  1  0
 13 14  1  0
 14 15  2  0
 15 16  1  0
 16 17  1  0
 17 18  2  0
 18 19  1  0
 19 20  1  0
 20 21  1  0
 21 22  2  0
 21 23  1  0
 23 24  1  0
 24 25  1  0
 25 26  1  0
 26 27  1  6
 26 28  1  0
 19 29  2  0
 29 30  1  0
  9  3  1  0
 30 13  2  0
 29 16  1  0
 28 23  1  0
M  END
>  <Compound_ID>  (506) 
CHEMBL4777109

>  <Molecule Name>  (506) 
nan

>  <Molecular Weight>  (506) 
432.5

>  <AlogP>  (506) 
2.97

>  <Smiles>  (506) 
C[C@H](c1cc(F)ccc1F)N(C)c1ccn2ncc(NC(=S)N3CC[C@H](O)C3)c2n1

>  <Standard Type>  (506) 
IC50

>  <Standard Relation>  (506) 
'='

>  <Standard Units>  (506) 
nM

>  <Standard Value>  (506) 
19.0

>  <Assay ChEMBL ID>  (506) 
CHEMBL4678168

>  <Assay Description>  (506) 
Inhibition of Trk-A (unknown origin)

>  <BAO Format ID>  (506) 
BAO_0000357

>  <BAO Label>  (506) 
single protein format

>  <Assay Organism>  (506) 
Homo sapiens

>  <Target ChEMBL ID>  (506) 
CHEMBL2815

>  <Target Name>  (506) 
Nerve growth factor receptor Trk-A

>  <Target Organism>  (506) 
Homo sapiens

>  <Target Type>  (506) 
SINGLE PROTEIN

>  <Document ChEMBL ID>  (506) 
CHEMBL4673327

>  <Source Description>  (506) 
Scientific Literature

>  <Document Journal>  (506) 
Bioorg Med Chem Lett

>  <Document Year>  (506) 
2021.0

>  <Active>  (506) 
1.0

>  <bits>  (506) 
<rdkit.DataStructs.cDataStructs.ExplicitBitVect object at 0x00000159F5473A00>

>  <Group>  (506) 
G2

$$$$

     RDKit          2D

 28 31  0  0  0  0  0  0  0  0999 V2000
   -4.6904   -6.5871    0.0000 C   0  0  0  0  0  0  0  0  0  0  0  0
   -4.3786   -5.1199    0.0000 N   0  0  0  0  0  0  0  0  0  0  0  0
   -5.4933   -4.1162    0.0000 C   0  0  0  0  0  0  0  0  0  0  0  0
   -2.9520   -4.6564    0.0000 C   0  0  0  0  0  0  0  0  0  0  0  0
   -1.8373   -5.6601    0.0000 O   0  0  0  0  0  0  0  0  0  0  0  0
   -2.6401   -3.1891    0.0000 N   0  0  0  0  0  0  0  0  0  0  0  0
   -1.2135   -2.7256    0.0000 C   0  0  0  0  0  0  0  0  0  0  0  0
   -0.0000   -3.6073    0.0000 C   0  0  0  0  0  0  0  0  0  0  0  0
    1.2135   -2.7256    0.0000 N   0  0  0  0  0  0  0  0  0  0  0  0
    0.7500   -1.2990    0.0000 N   0  0  0  0  0  0  0  0  0  0  0  0
    1.5000    0.0000    0.0000 C   0  0  0  0  0  0  0  0  0  0  0  0
    0.7500    1.2990    0.0000 C   0  0  0  0  0  0  0  0  0  0  0  0
   -0.7500    1.2990    0.0000 C   0  0  0  0  0  0  0  0  0  0  0  0
   -1.5000    2.5981    0.0000 N   0  0  0  0  0  0  0  0  0  0  0  0
   -2.9918    2.7549    0.0000 C   0  0  0  0  0  0  0  0  0  0  0  0
   -3.3037    4.2221    0.0000 C   0  0  0  0  0  0  0  0  0  0  0  0
   -2.0046    4.9721    0.0000 C   0  0  0  0  0  0  0  0  0  0  0  0
   -0.8899    3.9684    0.0000 C   0  0  0  0  0  0  0  0  0  0  0  0
    0.5773    4.2803    0.0000 C   0  0  0  0  0  0  0  0  0  0  0  0
    1.5810    3.1655    0.0000 C   0  0  0  0  0  0  0  0  0  0  0  0
    3.0482    3.4774    0.0000 C   0  0  0  0  0  0  0  0  0  0  0  0
    4.0519    2.3627    0.0000 F   0  0  0  0  0  0  0  0  0  0  0  0
    3.5118    4.9040    0.0000 C   0  0  0  0  0  0  0  0  0  0  0  0
    2.5081    6.0187    0.0000 C   0  0  0  0  0  0  0  0  0  0  0  0
    1.0409    5.7068    0.0000 C   0  0  0  0  0  0  0  0  0  0  0  0
    0.0372    6.8216    0.0000 F   0  0  0  0  0  0  0  0  0  0  0  0
   -1.5000    0.0000    0.0000 N   0  0  0  0  0  0  0  0  0  0  0  0
   -0.7500   -1.2990    0.0000 C   0  0  0  0  0  0  0  0  0  0  0  0
  1  2  1  0
  2  3  1  0
  2  4  1  0
  4  5  2  0
  4  6  1  0
  6  7  1  0
  7  8  1  0
  8  9  2  0
  9 10  1  0
 10 11  1  0
 11 12  2  0
 12 13  1  0
 13 14  1  0
 14 15  1  0
 15 16  1  0
 16 17  1  0
 17 18  1  0
 18 19  1  6
 19 20  2  0
 20 21  1  0
 21 22  1  0
 21 23  2  0
 23 24  1  0
 24 25  2  0
 25 26  1  0
 13 27  2  0
 27 28  1  0
 28  7  2  0
 28 10  1  0
 18 14  1  0
 25 19  1  0
M  END
>  <Compound_ID>  (507) 
CHEMBL4106907

>  <Molecule Name>  (507) 
nan

>  <Molecular Weight>  (507) 
386.41

>  <AlogP>  (507) 
3.44

>  <Smiles>  (507) 
CN(C)C(=O)Nc1cnn2ccc(N3CCC[C@@H]3c3cc(F)ccc3F)nc12

>  <Standard Type>  (507) 
IC50

>  <Standard Relation>  (507) 
'='

>  <Standard Units>  (507) 
nM

>  <Standard Value>  (507) 
15.8

>  <Assay ChEMBL ID>  (507) 
CHEMBL3887076

>  <Assay Description>  (507) 
ELISA Assay: An enzyme-linked immunosorbant assay (ELISA) was used to assess TrkA kinase activity in the presence of inhibitors. Immulon 4HBX 384-well microtiter plates (Thermo part #8755) were coated with a 0.025 mg/mL solution of poly (Glu, Ala, Tyr; 6:3:1; Sigma P3899). Various concentrations of test compound, 2.5 nM TrkA (Invitrogen Corp., histidine-tagged recombinant human TrkA, cytoplasmic domain), and 500 uM ATP were incubated for 25 minutes at ambient temperature in the coated plates while shaking. The assay buffer consisted of 25 mM MOPS pH 7.5, 0.005% (v/v) Triton X-100 and 5 mM MgCl2. The reaction mixture was removed from the plate by washing with PBS containing 0.1% (v/v) Tween 20. The phosphorylated reaction product was detected using 0.2 ug/mL of a phosphotyrosine specific monoclonal antibody (clone PY20) conjugated to horseradish peroxidase in conjunction with the TMB Peroxidase Substrate System (KPL).

>  <BAO Format ID>  (507) 
BAO_0000357

>  <BAO Label>  (507) 
single protein format

>  <Assay Organism>  (507) 
None

>  <Target ChEMBL ID>  (507) 
CHEMBL2815

>  <Target Name>  (507) 
Nerve growth factor receptor Trk-A

>  <Target Organism>  (507) 
Homo sapiens

>  <Target Type>  (507) 
SINGLE PROTEIN

>  <Document ChEMBL ID>  (507) 
CHEMBL3886151

>  <Source Description>  (507) 
BindingDB Database

>  <Document Journal>  (507) 
nan

>  <Document Year>  (507) 
2014.0

>  <Active>  (507) 
1.0

>  <bits>  (507) 
<rdkit.DataStructs.cDataStructs.ExplicitBitVect object at 0x00000159F54733E0>

>  <Group>  (507) 
G2

$$$$

     RDKit          2D

 37 40  0  0  0  0  0  0  0  0999 V2000
   -2.1766   -4.6157    0.0000 C   0  0  0  0  0  0  0  0  0  0  0  0
   -2.6401   -3.1891    0.0000 C   0  0  0  0  0  0  0  0  0  0  0  0
   -3.1036   -1.7626    0.0000 C   0  0  0  0  0  0  0  0  0  0  0  0
   -4.0667   -3.6527    0.0000 C   0  0  0  0  0  0  0  0  0  0  0  0
   -5.1814   -2.6490    0.0000 O   0  0  0  0  0  0  0  0  0  0  0  0
   -1.2135   -2.7256    0.0000 N   0  0  0  0  0  0  0  0  0  0  0  0
   -0.0000   -3.6073    0.0000 C   0  0  0  0  0  0  0  0  0  0  0  0
    1.2135   -2.7256    0.0000 C   0  0  0  0  0  0  0  0  0  0  0  0
    2.6401   -3.1891    0.0000 C   0  0  0  0  0  0  0  0  0  0  0  0
    3.7548   -2.1855    0.0000 O   0  0  0  0  0  0  0  0  0  0  0  0
    2.9520   -4.6564    0.0000 C   0  0  0  0  0  0  0  0  0  0  0  0
    1.8373   -5.6601    0.0000 C   0  0  0  0  0  0  0  0  0  0  0  0
    2.1491   -7.1273    0.0000 N   0  0  0  0  0  0  0  0  0  0  0  0
    3.5757   -7.5908    0.0000 C   0  0  0  0  0  0  0  0  0  0  0  0
    4.6904   -6.5871    0.0000 C   0  0  0  0  0  0  0  0  0  0  0  0
    6.1170   -7.0506    0.0000 N   0  0  0  0  0  0  0  0  0  0  0  0
    6.4289   -8.5179    0.0000 C   0  0  0  0  0  0  0  0  0  0  0  0
    5.3142   -9.5216    0.0000 O   0  0  0  0  0  0  0  0  0  0  0  0
    7.8555   -8.9814    0.0000 C   0  0  0  0  0  0  0  0  0  0  0  0
    8.1673  -10.4486    0.0000 C   0  0  0  0  0  0  0  0  0  0  0  0
    7.0526  -11.4523    0.0000 C   0  0  0  0  0  0  0  0  0  0  0  0
    7.3645  -12.9195    0.0000 C   0  0  0  0  0  0  0  0  0  0  0  0
    8.7911  -13.3831    0.0000 C   0  0  0  0  0  0  0  0  0  0  0  0
    9.1029  -14.8503    0.0000 C   0  0  0  0  0  0  0  0  0  0  0  0
    9.4148  -16.3175    0.0000 F   0  0  0  0  0  0  0  0  0  0  0  0
    7.6357  -15.1621    0.0000 F   0  0  0  0  0  0  0  0  0  0  0  0
   10.5702  -14.5384    0.0000 F   0  0  0  0  0  0  0  0  0  0  0  0
    9.9058  -12.3794    0.0000 C   0  0  0  0  0  0  0  0  0  0  0  0
    9.5939  -10.9121    0.0000 C   0  0  0  0  0  0  0  0  0  0  0  0
    4.3786   -5.1199    0.0000 C   0  0  0  0  0  0  0  0  0  0  0  0
    0.7500   -1.2990    0.0000 C   0  0  0  0  0  0  0  0  0  0  0  0
    1.5000    0.0000    0.0000 C   0  0  0  0  0  0  0  0  0  0  0  0
    0.7500    1.2990    0.0000 N   0  0  0  0  0  0  0  0  0  0  0  0
   -0.7500    1.2990    0.0000 C   0  0  0  0  0  0  0  0  0  0  0  0
   -1.5000    0.0000    0.0000 C   0  0  0  0  0  0  0  0  0  0  0  0
   -3.0000    0.0000    0.0000 F   0  0  0  0  0  0  0  0  0  0  0  0
   -0.7500   -1.2990    0.0000 C   0  0  0  0  0  0  0  0  0  0  0  0
  1  2  1  0
  2  3  1  0
  2  4  1  0
  4  5  1  0
  2  6  1  0
  6  7  1  0
  7  8  2  0
  8  9  1  0
  9 10  2  0
  9 11  1  0
 11 12  2  0
 12 13  1  0
 13 14  2  0
 14 15  1  0
 15 16  1  0
 16 17  1  0
 17 18  2  0
 17 19  1  0
 19 20  1  0
 20 21  2  0
 21 22  1  0
 22 23  2  0
 23 24  1  0
 24 25  1  0
 24 26  1  0
 24 27  1  0
 23 28  1  0
 28 29  2  0
 15 30  2  0
  8 31  1  0
 31 32  2  0
 32 33  1  0
 33 34  2  0
 34 35  1  0
 35 36  1  0
 35 37  2  0
 37  6  1  0
 30 11  1  0
 37 31  1  0
 29 20  1  0
M  END
>  <Compound_ID>  (508) 
CHEMBL3914864

>  <Molecule Name>  (508) 
nan

>  <Molecular Weight>  (508) 
514.48

>  <AlogP>  (508) 
4.73

>  <Smiles>  (508) 
CC(C)(CO)n1cc(C(=O)c2cncc(NC(=O)Cc3ccc(C(F)(F)F)cc3)c2)c2cncc(F)c21

>  <Standard Type>  (508) 
IC50

>  <Standard Relation>  (508) 
'='

>  <Standard Units>  (508) 
nM

>  <Standard Value>  (508) 
6.61

>  <Assay ChEMBL ID>  (508) 
CHEMBL3887111

>  <Assay Description>  (508) 
HTRF Assay: Isolated TRK Enzyme assays use the HTRF KinEASE-TK kit (Cisbio Cat#62TK0PEJ) with recombinant His-tagged cytoplasmic domains of each TRK receptor sourced from Invitrogen (see table below). This activity-assay measures the phosphorylation of tyrosine residues within a substrate from the HTRF kit which has been validated by Cisbio for a variety of tyrosine kinases including the TRK receptors.Assay Details: Invitrogen Amino FAC FAC Assay ReactionTarget Cat# acids enzyme ATP TimeTRKA PV3144 aa 441-4 nM 40 uM 35 min (NTRK1) 796 TRKB PV3616 aa 526-1 nM 1.4 uM 40 min (NTRK2) 838 TRKC PV3617 aa 510- 10 nM 15 uM 30 min (NTRK3) 8250.5 mM stock solutions of test compounds are prepared and serially diluted in 100% DMSO. A standard curve using the compound of Example 135 disclosed in WO2005/116035 of 150 uM is also prepared on each test plate. High percentage effect (HPE) is defined by 150 uM.

>  <BAO Format ID>  (508) 
BAO_0000357

>  <BAO Label>  (508) 
single protein format

>  <Assay Organism>  (508) 
None

>  <Target ChEMBL ID>  (508) 
CHEMBL2815

>  <Target Name>  (508) 
Nerve growth factor receptor Trk-A

>  <Target Organism>  (508) 
Homo sapiens

>  <Target Type>  (508) 
SINGLE PROTEIN

>  <Document ChEMBL ID>  (508) 
CHEMBL3886170

>  <Source Description>  (508) 
BindingDB Database

>  <Document Journal>  (508) 
nan

>  <Document Year>  (508) 
2015.0

>  <Active>  (508) 
1.0

>  <bits>  (508) 
<rdkit.DataStructs.cDataStructs.ExplicitBitVect object at 0x00000159F5472650>

>  <Group>  (508) 
G2

$$$$

     RDKit          2D

 33 37  0  0  0  0  0  0  0  0999 V2000
    8.4671   -8.9144    0.0000 C   0  0  0  0  0  0  0  0  0  0  0  0
    7.8570   -7.5441    0.0000 C   0  0  0  0  0  0  0  0  0  0  0  0
    6.5579   -8.2941    0.0000 C   0  0  0  0  0  0  0  0  0  0  0  0
    9.2836   -7.0806    0.0000 O   0  0  0  0  0  0  0  0  0  0  0  0
    9.2836   -5.5806    0.0000 C   0  0  0  0  0  0  0  0  0  0  0  0
    7.8570   -5.1171    0.0000 C   0  0  0  0  0  0  0  0  0  0  0  0
    7.3934   -3.6905    0.0000 C   0  0  0  0  0  0  0  0  0  0  0  0
    5.9262   -3.3786    0.0000 O   0  0  0  0  0  0  0  0  0  0  0  0
    5.4627   -1.9520    0.0000 C   0  0  0  0  0  0  0  0  0  0  0  0
    6.4664   -0.8373    0.0000 C   0  0  0  0  0  0  0  0  0  0  0  0
    6.0029    0.5893    0.0000 C   0  0  0  0  0  0  0  0  0  0  0  0
    4.5356    0.9012    0.0000 C   0  0  0  0  0  0  0  0  0  0  0  0
    4.0721    2.3277    0.0000 F   0  0  0  0  0  0  0  0  0  0  0  0
    3.5320   -0.2136    0.0000 C   0  0  0  0  0  0  0  0  0  0  0  0
    3.9955   -1.6402    0.0000 C   0  0  0  0  0  0  0  0  0  0  0  0
    2.9918   -2.7549    0.0000 C   0  0  0  0  0  0  0  0  0  0  0  0
    3.3037   -4.2221    0.0000 C   0  0  0  0  0  0  0  0  0  0  0  0
    2.0046   -4.9721    0.0000 C   0  0  0  0  0  0  0  0  0  0  0  0
    0.8899   -3.9684    0.0000 C   0  0  0  0  0  0  0  0  0  0  0  0
    1.5000   -2.5981    0.0000 N   0  0  0  0  0  0  0  0  0  0  0  0
    0.7500   -1.2990    0.0000 C   0  0  0  0  0  0  0  0  0  0  0  0
    1.5000    0.0000    0.0000 C   0  0  0  0  0  0  0  0  0  0  0  0
    0.7500    1.2990    0.0000 C   0  0  0  0  0  0  0  0  0  0  0  0
   -0.7500    1.2990    0.0000 N   0  0  0  0  0  0  0  0  0  0  0  0
   -1.7537    2.4138    0.0000 N   0  0  0  0  0  0  0  0  0  0  0  0
   -3.1240    1.8037    0.0000 C   0  0  0  0  0  0  0  0  0  0  0  0
   -2.9672    0.3119    0.0000 C   0  0  0  0  0  0  0  0  0  0  0  0
   -4.0819   -0.6918    0.0000 C   0  0  0  0  0  0  0  0  0  0  0  0
   -5.5085   -0.2283    0.0000 N   0  0  0  0  0  0  0  0  0  0  0  0
   -3.7701   -2.1590    0.0000 O   0  0  0  0  0  0  0  0  0  0  0  0
   -1.5000    0.0000    0.0000 C   0  0  0  0  0  0  0  0  0  0  0  0
   -0.7500   -1.2990    0.0000 N   0  0  0  0  0  0  0  0  0  0  0  0
    6.9753   -6.3306    0.0000 O   0  0  0  0  0  0  0  0  0  0  0  0
  1  2  1  0
  2  3  1  0
  2  4  1  0
  4  5  1  0
  5  6  1  0
  6  7  1  0
  7  8  1  0
  8  9  1  0
  9 10  2  0
 10 11  1  0
 11 12  2  0
 12 13  1  0
 12 14  1  0
 14 15  2  0
 16 15  1  1
 16 17  1  0
 17 18  1  0
 18 19  1  0
 19 20  1  0
 20 21  1  0
 21 22  1  0
 22 23  2  0
 23 24  1  0
 24 25  1  0
 25 26  2  0
 26 27  1  0
 27 28  1  0
 28 29  1  0
 28 30  2  0
 27 31  2  0
 31 32  1  0
  6 33  1  0
 33  2  1  0
 15  9  1  0
 20 16  1  0
 32 21  2  0
 31 24  1  0
M  END
>  <Compound_ID>  (509) 
CHEMBL3676071

>  <Molecule Name>  (509) 
nan

>  <Molecular Weight>  (509) 
455.49

>  <AlogP>  (509) 
2.84

>  <Smiles>  (509) 
CC1(C)OCC(COc2ccc(F)cc2[C@H]2CCCN2c2ccn3ncc(C(N)=O)c3n2)O1

>  <Standard Type>  (509) 
IC50

>  <Standard Relation>  (509) 
'='

>  <Standard Units>  (509) 
nM

>  <Standard Value>  (509) 
14.3

>  <Assay ChEMBL ID>  (509) 
CHEMBL3887070

>  <Assay Description>  (509) 
ELISA Assay: An enzyme-linked immunosorbant assay (ELISA) was used to assess TrkA kinase activity in the presence of inhibitors. Immulon 4HBX 384-well microtiter plates (Thermo part #8755) were coated with a 0.025 mg/mL solution of poly (Glu, Ala, Tyr; 6:3:1; Sigma P3899). Various concentrations of test compound, 2.5 nM TrkA (Invitrogen Corp., histidine-tagged recombinant human TrkA, cytoplasmic domain), and 500 uM ATP were incubated for 25 minutes at ambient temperature in the coated plates while shaking The assay buffer consisted of 25 mM MOPS pH 7.5, 0.005% (v/v) Triton X-100 and 5 mM MgCl2. The reaction mixture was removed from the plate by washing with PBS containing 0.1% (v/v) Tween 20. The phosphorylated reaction product was detected using 0.2 ug/mL of a phosphotyrosine specific monoclonal antibody (clone PY20) conjugated to horseradish peroxidase in conjunction with the TMB Peroxidase Substrate System (KPL).

>  <BAO Format ID>  (509) 
BAO_0000357

>  <BAO Label>  (509) 
single protein format

>  <Assay Organism>  (509) 
None

>  <Target ChEMBL ID>  (509) 
CHEMBL2815

>  <Target Name>  (509) 
Nerve growth factor receptor Trk-A

>  <Target Organism>  (509) 
Homo sapiens

>  <Target Type>  (509) 
SINGLE PROTEIN

>  <Document ChEMBL ID>  (509) 
CHEMBL3638907

>  <Source Description>  (509) 
BindingDB Database

>  <Document Journal>  (509) 
nan

>  <Document Year>  (509) 
2014.0

>  <Active>  (509) 
1.0

>  <bits>  (509) 
<rdkit.DataStructs.cDataStructs.ExplicitBitVect object at 0x00000159F54725E0>

>  <Group>  (509) 
G2

$$$$

     RDKit          2D

 32 35  0  0  0  0  0  0  0  0999 V2000
   -2.1766   -4.6157    0.0000 C   0  0  0  0  0  0  0  0  0  0  0  0
   -2.6401   -3.1891    0.0000 C   0  0  0  0  0  0  0  0  0  0  0  0
   -3.1036   -1.7626    0.0000 C   0  0  0  0  0  0  0  0  0  0  0  0
   -4.0667   -3.6527    0.0000 C   0  0  0  0  0  0  0  0  0  0  0  0
   -1.2135   -2.7256    0.0000 N   0  0  0  0  0  0  0  0  0  0  0  0
   -0.0000   -3.6073    0.0000 C   0  0  0  0  0  0  0  0  0  0  0  0
    1.2135   -2.7256    0.0000 C   0  0  0  0  0  0  0  0  0  0  0  0
    2.6401   -3.1891    0.0000 C   0  0  0  0  0  0  0  0  0  0  0  0
    3.7548   -2.1855    0.0000 O   0  0  0  0  0  0  0  0  0  0  0  0
    2.9520   -4.6564    0.0000 C   0  0  0  0  0  0  0  0  0  0  0  0
    1.8373   -5.6601    0.0000 C   0  0  0  0  0  0  0  0  0  0  0  0
    2.1491   -7.1273    0.0000 N   0  0  0  0  0  0  0  0  0  0  0  0
    3.5757   -7.5908    0.0000 C   0  0  0  0  0  0  0  0  0  0  0  0
    4.6904   -6.5871    0.0000 C   0  0  0  0  0  0  0  0  0  0  0  0
    6.1170   -7.0506    0.0000 N   0  0  0  0  0  0  0  0  0  0  0  0
    6.4289   -8.5179    0.0000 C   0  0  0  0  0  0  0  0  0  0  0  0
    5.3142   -9.5216    0.0000 O   0  0  0  0  0  0  0  0  0  0  0  0
    7.8555   -8.9814    0.0000 C   0  0  0  0  0  0  0  0  0  0  0  0
    8.1673  -10.4486    0.0000 C   0  0  0  0  0  0  0  0  0  0  0  0
    7.0526  -11.4523    0.0000 C   0  0  0  0  0  0  0  0  0  0  0  0
    7.3645  -12.9195    0.0000 C   0  0  0  0  0  0  0  0  0  0  0  0
    8.7911  -13.3831    0.0000 C   0  0  0  0  0  0  0  0  0  0  0  0
    9.1029  -14.8503    0.0000 F   0  0  0  0  0  0  0  0  0  0  0  0
    9.9058  -12.3794    0.0000 C   0  0  0  0  0  0  0  0  0  0  0  0
    9.5939  -10.9121    0.0000 C   0  0  0  0  0  0  0  0  0  0  0  0
    4.3786   -5.1199    0.0000 C   0  0  0  0  0  0  0  0  0  0  0  0
    0.7500   -1.2990    0.0000 C   0  0  0  0  0  0  0  0  0  0  0  0
    1.5000    0.0000    0.0000 C   0  0  0  0  0  0  0  0  0  0  0  0
    0.7500    1.2990    0.0000 N   0  0  0  0  0  0  0  0  0  0  0  0
   -0.7500    1.2990    0.0000 C   0  0  0  0  0  0  0  0  0  0  0  0
   -1.5000    0.0000    0.0000 N   0  0  0  0  0  0  0  0  0  0  0  0
   -0.7500   -1.2990    0.0000 C   0  0  0  0  0  0  0  0  0  0  0  0
  1  2  1  0
  2  3  1  0
  2  4  1  0
  2  5  1  0
  5  6  1  0
  6  7  2  0
  7  8  1  0
  8  9  2  0
  8 10  1  0
 10 11  2  0
 11 12  1  0
 12 13  2  0
 13 14  1  0
 14 15  1  0
 15 16  1  0
 16 17  2  0
 16 18  1  0
 18 19  1  0
 19 20  2  0
 20 21  1  0
 21 22  2  0
 22 23  1  0
 22 24  1  0
 24 25  2  0
 14 26  2  0
  7 27  1  0
 27 28  2  0
 28 29  1  0
 29 30  2  0
 30 31  1  0
 31 32  2  0
 32  5  1  0
 26 10  1  0
 32 27  1  0
 25 19  1  0
M  END
>  <Compound_ID>  (510) 
CHEMBL3671420

>  <Molecule Name>  (510) 
nan

>  <Molecular Weight>  (510) 
431.47

>  <AlogP>  (510) 
4.13

>  <Smiles>  (510) 
CC(C)(C)n1cc(C(=O)c2cncc(NC(=O)Cc3ccc(F)cc3)c2)c2cncnc21

>  <Standard Type>  (510) 
IC50

>  <Standard Relation>  (510) 
'='

>  <Standard Units>  (510) 
nM

>  <Standard Value>  (510) 
5.34

>  <Assay ChEMBL ID>  (510) 
CHEMBL3887033

>  <Assay Description>  (510) 
Enzyme Assay: Isolated TRK Enzyme assays use the HTRF KinEASE-TK kit (Cisbio Cat# 62TK0PEJ) with recombinant His-tagged cytoplasmic domains of each TRK receptor sourced from Invitrogen (see table below). This activity-assay measures the phosphorylation of tyrosine residues within a substrate from the HTRF kit which has been validated by Cisbio for a variety of tyrosine kinases including the TRK receptors. Assay details: Target:TRKA; Invitrogen Cat# PV3144; Amino acids:aa 441-796; FAC enzyme:4nM; FAC ATP:40uM; Assay Reaction Time:35min.

>  <BAO Format ID>  (510) 
BAO_0000357

>  <BAO Label>  (510) 
single protein format

>  <Assay Organism>  (510) 
None

>  <Target ChEMBL ID>  (510) 
CHEMBL2815

>  <Target Name>  (510) 
Nerve growth factor receptor Trk-A

>  <Target Organism>  (510) 
Homo sapiens

>  <Target Type>  (510) 
SINGLE PROTEIN

>  <Document ChEMBL ID>  (510) 
CHEMBL3639348

>  <Source Description>  (510) 
BindingDB Database

>  <Document Journal>  (510) 
nan

>  <Document Year>  (510) 
2014.0

>  <Active>  (510) 
1.0

>  <bits>  (510) 
<rdkit.DataStructs.cDataStructs.ExplicitBitVect object at 0x00000159F5472420>

>  <Group>  (510) 
G2

$$$$

     RDKit          2D

 24 26  0  0  0  0  0  0  0  0999 V2000
    5.4627   -4.5501    0.0000 N   0  0  0  0  0  0  0  0  0  0  0  0
    3.9955   -4.2382    0.0000 C   0  0  0  0  0  0  0  0  0  0  0  0
    3.5320   -2.8116    0.0000 O   0  0  0  0  0  0  0  0  0  0  0  0
    2.9918   -5.3529    0.0000 C   0  0  0  0  0  0  0  0  0  0  0  0
    1.5000   -5.1962    0.0000 C   0  0  0  0  0  0  0  0  0  0  0  0
    0.7500   -3.8971    0.0000 S   0  0  0  0  0  0  0  0  0  0  0  0
    1.5000   -2.5981    0.0000 C   0  0  0  0  0  0  0  0  0  0  0  0
    0.7500   -1.2990    0.0000 C   0  0  0  0  0  0  0  0  0  0  0  0
    1.5000    0.0000    0.0000 C   0  0  0  0  0  0  0  0  0  0  0  0
    0.7500    1.2990    0.0000 C   0  0  0  0  0  0  0  0  0  0  0  0
   -0.7500    1.2990    0.0000 C   0  0  0  0  0  0  0  0  0  0  0  0
   -1.5000    2.5981    0.0000 Cl  0  0  0  0  0  0  0  0  0  0  0  0
   -1.5000    0.0000    0.0000 C   0  0  0  0  0  0  0  0  0  0  0  0
   -0.7500   -1.2990    0.0000 C   0  0  0  0  0  0  0  0  0  0  0  0
    0.8899   -6.5665    0.0000 N   0  0  0  0  0  0  0  0  0  0  0  0
    2.0046   -7.5702    0.0000 S   0  0  0  0  0  0  0  0  0  0  0  0
    3.3037   -6.8202    0.0000 C   0  0  0  0  0  0  0  0  0  0  0  0
    4.6740   -7.4303    0.0000 N   0  0  0  0  0  0  0  0  0  0  0  0
    4.8308   -8.9221    0.0000 C   0  0  0  0  0  0  0  0  0  0  0  0
    3.6172   -9.8037    0.0000 C   0  0  0  0  0  0  0  0  0  0  0  0
    3.7740  -11.2955    0.0000 C   0  0  0  0  0  0  0  0  0  0  0  0
    5.1443  -11.9056    0.0000 N   0  0  0  0  0  0  0  0  0  0  0  0
    6.3579  -11.0239    0.0000 C   0  0  0  0  0  0  0  0  0  0  0  0
    6.2011   -9.5322    0.0000 N   0  0  0  0  0  0  0  0  0  0  0  0
  1  2  1  0
  2  3  2  0
  2  4  1  0
  4  5  1  0
  5  6  1  0
  6  7  1  0
  7  8  1  0
  8  9  2  0
  9 10  1  0
 10 11  2  0
 11 12  1  0
 11 13  1  0
 13 14  2  0
  5 15  2  0
 15 16  1  0
 16 17  1  0
 17 18  1  0
 18 19  1  0
 19 20  2  0
 20 21  1  0
 21 22  2  0
 22 23  1  0
 23 24  2  0
 17  4  2  0
 24 19  1  0
 14  8  1  0
M  END
>  <Compound_ID>  (511) 
CHEMBL377444

>  <Molecule Name>  (511) 
nan

>  <Molecular Weight>  (511) 
377.88

>  <AlogP>  (511) 
3.72

>  <Smiles>  (511) 
NC(=O)c1c(SCc2ccc(Cl)cc2)nsc1Nc1ccncn1

>  <Standard Type>  (511) 
IC50

>  <Standard Relation>  (511) 
'='

>  <Standard Units>  (511) 
nM

>  <Standard Value>  (511) 
47.0

>  <Assay ChEMBL ID>  (511) 
CHEMBL867240

>  <Assay Description>  (511) 
Inhibition of TrkA kinase

>  <BAO Format ID>  (511) 
BAO_0000357

>  <BAO Label>  (511) 
single protein format

>  <Assay Organism>  (511) 
Homo sapiens

>  <Target ChEMBL ID>  (511) 
CHEMBL2815

>  <Target Name>  (511) 
Nerve growth factor receptor Trk-A

>  <Target Organism>  (511) 
Homo sapiens

>  <Target Type>  (511) 
SINGLE PROTEIN

>  <Document ChEMBL ID>  (511) 
CHEMBL1138090

>  <Source Description>  (511) 
Scientific Literature

>  <Document Journal>  (511) 
Bioorg Med Chem Lett

>  <Document Year>  (511) 
2006.0

>  <Active>  (511) 
1.0

>  <bits>  (511) 
<rdkit.DataStructs.cDataStructs.ExplicitBitVect object at 0x00000159F5471690>

>  <Group>  (511) 
G2

$$$$

     RDKit          2D

 31 34  0  0  0  0  0  0  0  0999 V2000
   -2.9520   -4.6564    0.0000 C   0  0  0  0  0  0  0  0  0  0  0  0
   -2.6401   -3.1891    0.0000 C   0  0  0  0  0  0  0  0  0  0  0  0
   -3.7548   -2.1855    0.0000 C   0  0  0  0  0  0  0  0  0  0  0  0
   -1.2135   -2.7256    0.0000 N   0  0  0  0  0  0  0  0  0  0  0  0
   -0.0000   -3.6073    0.0000 C   0  0  0  0  0  0  0  0  0  0  0  0
    1.2135   -2.7256    0.0000 C   0  0  0  0  0  0  0  0  0  0  0  0
    2.6401   -3.1891    0.0000 C   0  0  0  0  0  0  0  0  0  0  0  0
    3.7548   -2.1855    0.0000 O   0  0  0  0  0  0  0  0  0  0  0  0
    2.9520   -4.6564    0.0000 C   0  0  0  0  0  0  0  0  0  0  0  0
    1.8373   -5.6601    0.0000 C   0  0  0  0  0  0  0  0  0  0  0  0
    2.1491   -7.1273    0.0000 C   0  0  0  0  0  0  0  0  0  0  0  0
    3.5757   -7.5908    0.0000 N   0  0  0  0  0  0  0  0  0  0  0  0
    4.6904   -6.5871    0.0000 C   0  0  0  0  0  0  0  0  0  0  0  0
    6.1170   -7.0506    0.0000 N   0  0  0  0  0  0  0  0  0  0  0  0
    6.4289   -8.5179    0.0000 C   0  0  0  0  0  0  0  0  0  0  0  0
    5.3142   -9.5216    0.0000 O   0  0  0  0  0  0  0  0  0  0  0  0
    7.8555   -8.9814    0.0000 C   0  0  0  0  0  0  0  0  0  0  0  0
    8.1673  -10.4486    0.0000 C   0  0  0  0  0  0  0  0  0  0  0  0
    7.0526  -11.4523    0.0000 C   0  0  0  0  0  0  0  0  0  0  0  0
    7.3645  -12.9195    0.0000 C   0  0  0  0  0  0  0  0  0  0  0  0
    8.7911  -13.3831    0.0000 C   0  0  0  0  0  0  0  0  0  0  0  0
    9.1029  -14.8503    0.0000 F   0  0  0  0  0  0  0  0  0  0  0  0
    9.9058  -12.3794    0.0000 C   0  0  0  0  0  0  0  0  0  0  0  0
    9.5939  -10.9121    0.0000 C   0  0  0  0  0  0  0  0  0  0  0  0
    4.3786   -5.1199    0.0000 C   0  0  0  0  0  0  0  0  0  0  0  0
    0.7500   -1.2990    0.0000 C   0  0  0  0  0  0  0  0  0  0  0  0
    1.5000    0.0000    0.0000 C   0  0  0  0  0  0  0  0  0  0  0  0
    0.7500    1.2990    0.0000 N   0  0  0  0  0  0  0  0  0  0  0  0
   -0.7500    1.2990    0.0000 C   0  0  0  0  0  0  0  0  0  0  0  0
   -1.5000    0.0000    0.0000 C   0  0  0  0  0  0  0  0  0  0  0  0
   -0.7500   -1.2990    0.0000 C   0  0  0  0  0  0  0  0  0  0  0  0
  1  2  1  0
  2  3  1  0
  2  4  1  0
  4  5  1  0
  5  6  2  0
  6  7  1  0
  7  8  2  0
  7  9  1  0
  9 10  2  0
 10 11  1  0
 11 12  2  0
 12 13  1  0
 13 14  1  0
 14 15  1  0
 15 16  2  0
 15 17  1  0
 17 18  1  0
 18 19  2  0
 19 20  1  0
 20 21  2  0
 21 22  1  0
 21 23  1  0
 23 24  2  0
 13 25  2  0
  6 26  1  0
 26 27  2  0
 27 28  1  0
 28 29  2  0
 29 30  1  0
 30 31  2  0
 31  4  1  0
 25  9  1  0
 31 26  1  0
 24 18  1  0
M  END
>  <Compound_ID>  (512) 
CHEMBL3942634

>  <Molecule Name>  (512) 
nan

>  <Molecular Weight>  (512) 
416.46

>  <AlogP>  (512) 
4.56

>  <Smiles>  (512) 
CC(C)n1cc(C(=O)c2ccnc(NC(=O)Cc3ccc(F)cc3)c2)c2cnccc21

>  <Standard Type>  (512) 
IC50

>  <Standard Relation>  (512) 
'='

>  <Standard Units>  (512) 
nM

>  <Standard Value>  (512) 
13.3

>  <Assay ChEMBL ID>  (512) 
CHEMBL3887111

>  <Assay Description>  (512) 
HTRF Assay: Isolated TRK Enzyme assays use the HTRF KinEASE-TK kit (Cisbio Cat#62TK0PEJ) with recombinant His-tagged cytoplasmic domains of each TRK receptor sourced from Invitrogen (see table below). This activity-assay measures the phosphorylation of tyrosine residues within a substrate from the HTRF kit which has been validated by Cisbio for a variety of tyrosine kinases including the TRK receptors.Assay Details: Invitrogen Amino FAC FAC Assay ReactionTarget Cat# acids enzyme ATP TimeTRKA PV3144 aa 441-4 nM 40 uM 35 min (NTRK1) 796 TRKB PV3616 aa 526-1 nM 1.4 uM 40 min (NTRK2) 838 TRKC PV3617 aa 510- 10 nM 15 uM 30 min (NTRK3) 8250.5 mM stock solutions of test compounds are prepared and serially diluted in 100% DMSO. A standard curve using the compound of Example 135 disclosed in WO2005/116035 of 150 uM is also prepared on each test plate. High percentage effect (HPE) is defined by 150 uM.

>  <BAO Format ID>  (512) 
BAO_0000357

>  <BAO Label>  (512) 
single protein format

>  <Assay Organism>  (512) 
None

>  <Target ChEMBL ID>  (512) 
CHEMBL2815

>  <Target Name>  (512) 
Nerve growth factor receptor Trk-A

>  <Target Organism>  (512) 
Homo sapiens

>  <Target Type>  (512) 
SINGLE PROTEIN

>  <Document ChEMBL ID>  (512) 
CHEMBL3886170

>  <Source Description>  (512) 
BindingDB Database

>  <Document Journal>  (512) 
nan

>  <Document Year>  (512) 
2015.0

>  <Active>  (512) 
1.0

>  <bits>  (512) 
<rdkit.DataStructs.cDataStructs.ExplicitBitVect object at 0x00000159F5471310>

>  <Group>  (512) 
G2

$$$$

     RDKit          2D

 33 36  0  0  0  0  0  0  0  0999 V2000
    7.9336   -1.1492    0.0000 C   0  0  0  0  0  0  0  0  0  0  0  0
    6.4664   -0.8373    0.0000 N   0  0  0  0  0  0  0  0  0  0  0  0
    6.0029    0.5893    0.0000 C   0  0  0  0  0  0  0  0  0  0  0  0
    4.5356    0.9012    0.0000 C   0  0  0  0  0  0  0  0  0  0  0  0
    4.0721    2.3277    0.0000 F   0  0  0  0  0  0  0  0  0  0  0  0
    3.5320   -0.2136    0.0000 C   0  0  0  0  0  0  0  0  0  0  0  0
    3.9955   -1.6402    0.0000 C   0  0  0  0  0  0  0  0  0  0  0  0
    2.9918   -2.7549    0.0000 C   0  0  0  0  0  0  0  0  0  0  0  0
    3.3037   -4.2221    0.0000 C   0  0  0  0  0  0  0  0  0  0  0  0
    2.0046   -4.9721    0.0000 C   0  0  0  0  0  0  0  0  0  0  0  0
    0.8899   -3.9684    0.0000 C   0  0  0  0  0  0  0  0  0  0  0  0
    1.5000   -2.5981    0.0000 N   0  0  0  0  0  0  0  0  0  0  0  0
    0.7500   -1.2990    0.0000 C   0  0  0  0  0  0  0  0  0  0  0  0
    1.5000    0.0000    0.0000 C   0  0  0  0  0  0  0  0  0  0  0  0
    0.7500    1.2990    0.0000 C   0  0  0  0  0  0  0  0  0  0  0  0
   -0.7500    1.2990    0.0000 N   0  0  0  0  0  0  0  0  0  0  0  0
   -1.7537    2.4138    0.0000 N   0  0  0  0  0  0  0  0  0  0  0  0
   -3.1240    1.8037    0.0000 C   0  0  0  0  0  0  0  0  0  0  0  0
   -2.9672    0.3119    0.0000 C   0  0  0  0  0  0  0  0  0  0  0  0
   -4.0819   -0.6918    0.0000 C   0  0  0  0  0  0  0  0  0  0  0  0
   -3.7701   -2.1590    0.0000 O   0  0  0  0  0  0  0  0  0  0  0  0
   -5.5085   -0.2283    0.0000 N   0  0  0  0  0  0  0  0  0  0  0  0
   -6.6232   -1.2320    0.0000 C   0  0  0  0  0  0  0  0  0  0  0  0
   -6.3114   -2.6992    0.0000 C   0  0  0  0  0  0  0  0  0  0  0  0
   -7.4261   -3.7029    0.0000 O   0  0  0  0  0  0  0  0  0  0  0  0
   -8.0498   -0.7685    0.0000 C   0  0  0  0  0  0  0  0  0  0  0  0
   -8.5134   -2.1951    0.0000 C   0  0  0  0  0  0  0  0  0  0  0  0
   -7.5863    0.6581    0.0000 C   0  0  0  0  0  0  0  0  0  0  0  0
   -9.4764   -0.3049    0.0000 C   0  0  0  0  0  0  0  0  0  0  0  0
   -1.5000    0.0000    0.0000 C   0  0  0  0  0  0  0  0  0  0  0  0
   -0.7500   -1.2990    0.0000 N   0  0  0  0  0  0  0  0  0  0  0  0
    5.4627   -1.9520    0.0000 C   0  0  0  0  0  0  0  0  0  0  0  0
    5.9262   -3.3786    0.0000 O   0  0  0  0  0  0  0  0  0  0  0  0
  1  2  1  0
  2  3  1  0
  3  4  2  0
  4  5  1  0
  4  6  1  0
  6  7  2  0
  8  7  1  1
  8  9  1  0
  9 10  1  0
 10 11  1  0
 11 12  1  0
 12 13  1  0
 13 14  1  0
 14 15  2  0
 15 16  1  0
 16 17  1  0
 17 18  2  0
 18 19  1  0
 19 20  1  0
 20 21  2  0
 20 22  1  0
 22 23  1  0
 23 24  1  6
 24 25  1  0
 23 26  1  0
 26 27  1  0
 26 28  1  0
 26 29  1  0
 19 30  2  0
 30 31  1  0
  7 32  1  0
 32 33  2  0
 32  2  1  0
 12  8  1  0
 31 13  2  0
 30 16  1  0
M  END
>  <Compound_ID>  (513) 
CHEMBL3676095

>  <Molecule Name>  (513) 
nan

>  <Molecular Weight>  (513) 
456.52

>  <AlogP>  (513) 
2.05

>  <Smiles>  (513) 
Cn1cc(F)cc([C@H]2CCCN2c2ccn3ncc(C(=O)N[C@H](CO)C(C)(C)C)c3n2)c1=O

>  <Standard Type>  (513) 
IC50

>  <Standard Relation>  (513) 
'='

>  <Standard Units>  (513) 
nM

>  <Standard Value>  (513) 
75.9

>  <Assay ChEMBL ID>  (513) 
CHEMBL3887070

>  <Assay Description>  (513) 
ELISA Assay: An enzyme-linked immunosorbant assay (ELISA) was used to assess TrkA kinase activity in the presence of inhibitors. Immulon 4HBX 384-well microtiter plates (Thermo part #8755) were coated with a 0.025 mg/mL solution of poly (Glu, Ala, Tyr; 6:3:1; Sigma P3899). Various concentrations of test compound, 2.5 nM TrkA (Invitrogen Corp., histidine-tagged recombinant human TrkA, cytoplasmic domain), and 500 uM ATP were incubated for 25 minutes at ambient temperature in the coated plates while shaking The assay buffer consisted of 25 mM MOPS pH 7.5, 0.005% (v/v) Triton X-100 and 5 mM MgCl2. The reaction mixture was removed from the plate by washing with PBS containing 0.1% (v/v) Tween 20. The phosphorylated reaction product was detected using 0.2 ug/mL of a phosphotyrosine specific monoclonal antibody (clone PY20) conjugated to horseradish peroxidase in conjunction with the TMB Peroxidase Substrate System (KPL).

>  <BAO Format ID>  (513) 
BAO_0000357

>  <BAO Label>  (513) 
single protein format

>  <Assay Organism>  (513) 
None

>  <Target ChEMBL ID>  (513) 
CHEMBL2815

>  <Target Name>  (513) 
Nerve growth factor receptor Trk-A

>  <Target Organism>  (513) 
Homo sapiens

>  <Target Type>  (513) 
SINGLE PROTEIN

>  <Document ChEMBL ID>  (513) 
CHEMBL3638907

>  <Source Description>  (513) 
BindingDB Database

>  <Document Journal>  (513) 
nan

>  <Document Year>  (513) 
2014.0

>  <Active>  (513) 
1.0

>  <bits>  (513) 
<rdkit.DataStructs.cDataStructs.ExplicitBitVect object at 0x00000159F5470F20>

>  <Group>  (513) 
G2

$$$$

     RDKit          2D

 32 35  0  0  0  0  0  0  0  0999 V2000
  -14.8556   -4.4264    0.0000 C   0  0  0  0  0  0  0  0  0  0  0  0
  -13.7409   -5.4301    0.0000 O   0  0  0  0  0  0  0  0  0  0  0  0
  -12.3143   -4.9666    0.0000 C   0  0  0  0  0  0  0  0  0  0  0  0
  -12.0025   -3.4994    0.0000 C   0  0  0  0  0  0  0  0  0  0  0  0
  -10.5759   -3.0359    0.0000 C   0  0  0  0  0  0  0  0  0  0  0  0
   -9.4612   -4.0396    0.0000 C   0  0  0  0  0  0  0  0  0  0  0  0
   -9.7730   -5.5068    0.0000 C   0  0  0  0  0  0  0  0  0  0  0  0
   -8.6583   -6.5105    0.0000 C   0  0  0  0  0  0  0  0  0  0  0  0
   -7.2317   -6.0469    0.0000 C   0  0  0  0  0  0  0  0  0  0  0  0
   -6.9199   -4.5797    0.0000 O   0  0  0  0  0  0  0  0  0  0  0  0
   -6.1170   -7.0506    0.0000 N   0  0  0  0  0  0  0  0  0  0  0  0
   -4.6904   -6.5871    0.0000 C   0  0  0  0  0  0  0  0  0  0  0  0
   -3.5757   -7.5908    0.0000 C   0  0  0  0  0  0  0  0  0  0  0  0
   -2.1491   -7.1273    0.0000 N   0  0  0  0  0  0  0  0  0  0  0  0
   -1.8373   -5.6601    0.0000 C   0  0  0  0  0  0  0  0  0  0  0  0
   -2.9520   -4.6564    0.0000 C   0  0  0  0  0  0  0  0  0  0  0  0
   -2.6401   -3.1891    0.0000 C   0  0  0  0  0  0  0  0  0  0  0  0
   -3.7548   -2.1855    0.0000 O   0  0  0  0  0  0  0  0  0  0  0  0
   -1.2135   -2.7256    0.0000 C   0  0  0  0  0  0  0  0  0  0  0  0
   -0.0000   -3.6073    0.0000 C   0  0  0  0  0  0  0  0  0  0  0  0
    1.2135   -2.7256    0.0000 N   0  0  0  0  0  0  0  0  0  0  0  0
    2.6401   -3.1891    0.0000 C   0  0  0  0  0  0  0  0  0  0  0  0
    2.9520   -4.6564    0.0000 C   0  0  0  0  0  0  0  0  0  0  0  0
    3.7548   -2.1855    0.0000 C   0  0  0  0  0  0  0  0  0  0  0  0
    0.7500   -1.2990    0.0000 C   0  0  0  0  0  0  0  0  0  0  0  0
    1.5000    0.0000    0.0000 C   0  0  0  0  0  0  0  0  0  0  0  0
    0.7500    1.2990    0.0000 C   0  0  0  0  0  0  0  0  0  0  0  0
   -0.7500    1.2990    0.0000 N   0  0  0  0  0  0  0  0  0  0  0  0
   -1.5000    0.0000    0.0000 C   0  0  0  0  0  0  0  0  0  0  0  0
   -0.7500   -1.2990    0.0000 C   0  0  0  0  0  0  0  0  0  0  0  0
   -4.3786   -5.1199    0.0000 C   0  0  0  0  0  0  0  0  0  0  0  0
  -11.1996   -5.9703    0.0000 C   0  0  0  0  0  0  0  0  0  0  0  0
  1  2  1  0
  2  3  1  0
  3  4  2  0
  4  5  1  0
  5  6  2  0
  6  7  1  0
  7  8  1  0
  8  9  1  0
  9 10  2  0
  9 11  1  0
 11 12  1  0
 12 13  2  0
 13 14  1  0
 14 15  2  0
 15 16  1  0
 16 17  1  0
 17 18  2  0
 17 19  1  0
 19 20  2  0
 20 21  1  0
 21 22  1  0
 22 23  1  0
 22 24  1  0
 21 25  1  0
 25 26  2  0
 26 27  1  0
 27 28  2  0
 28 29  1  0
 29 30  2  0
 16 31  2  0
  7 32  2  0
 32  3  1  0
 31 12  1  0
 30 19  1  0
 30 25  1  0
M  END
>  <Compound_ID>  (514) 
CHEMBL3970112

>  <Molecule Name>  (514) 
nan

>  <Molecular Weight>  (514) 
428.49

>  <AlogP>  (514) 
4.43

>  <Smiles>  (514) 
COc1cccc(CC(=O)Nc2cncc(C(=O)c3cn(C(C)C)c4ccncc34)c2)c1

>  <Standard Type>  (514) 
IC50

>  <Standard Relation>  (514) 
'='

>  <Standard Units>  (514) 
nM

>  <Standard Value>  (514) 
96.2

>  <Assay ChEMBL ID>  (514) 
CHEMBL3887111

>  <Assay Description>  (514) 
HTRF Assay: Isolated TRK Enzyme assays use the HTRF KinEASE-TK kit (Cisbio Cat#62TK0PEJ) with recombinant His-tagged cytoplasmic domains of each TRK receptor sourced from Invitrogen (see table below). This activity-assay measures the phosphorylation of tyrosine residues within a substrate from the HTRF kit which has been validated by Cisbio for a variety of tyrosine kinases including the TRK receptors.Assay Details: Invitrogen Amino FAC FAC Assay ReactionTarget Cat# acids enzyme ATP TimeTRKA PV3144 aa 441-4 nM 40 uM 35 min (NTRK1) 796 TRKB PV3616 aa 526-1 nM 1.4 uM 40 min (NTRK2) 838 TRKC PV3617 aa 510- 10 nM 15 uM 30 min (NTRK3) 8250.5 mM stock solutions of test compounds are prepared and serially diluted in 100% DMSO. A standard curve using the compound of Example 135 disclosed in WO2005/116035 of 150 uM is also prepared on each test plate. High percentage effect (HPE) is defined by 150 uM.

>  <BAO Format ID>  (514) 
BAO_0000357

>  <BAO Label>  (514) 
single protein format

>  <Assay Organism>  (514) 
None

>  <Target ChEMBL ID>  (514) 
CHEMBL2815

>  <Target Name>  (514) 
Nerve growth factor receptor Trk-A

>  <Target Organism>  (514) 
Homo sapiens

>  <Target Type>  (514) 
SINGLE PROTEIN

>  <Document ChEMBL ID>  (514) 
CHEMBL3886170

>  <Source Description>  (514) 
BindingDB Database

>  <Document Journal>  (514) 
nan

>  <Document Year>  (514) 
2015.0

>  <Active>  (514) 
1.0

>  <bits>  (514) 
<rdkit.DataStructs.cDataStructs.ExplicitBitVect object at 0x00000159F5470D60>

>  <Group>  (514) 
G2

$$$$

     RDKit          2D

 34 38  0  0  0  0  0  0  0  0999 V2000
   -1.6581  -11.0654    0.0000 N   0  0  0  0  0  0  0  0  0  0  0  0
   -2.7729  -10.0617    0.0000 C   0  0  0  0  0  0  0  0  0  0  0  0
   -3.8876   -9.0580    0.0000 C   0  0  0  0  0  0  0  0  0  0  0  0
   -5.3142   -9.5216    0.0000 C   0  0  0  0  0  0  0  0  0  0  0  0
   -6.4289   -8.5179    0.0000 C   0  0  0  0  0  0  0  0  0  0  0  0
   -6.1170   -7.0506    0.0000 C   0  0  0  0  0  0  0  0  0  0  0  0
   -4.6904   -6.5871    0.0000 C   0  0  0  0  0  0  0  0  0  0  0  0
   -4.3786   -5.1199    0.0000 N   0  0  0  0  0  0  0  0  0  0  0  0
   -2.9520   -4.6564    0.0000 C   0  0  0  0  0  0  0  0  0  0  0  0
   -1.8373   -5.6601    0.0000 O   0  0  0  0  0  0  0  0  0  0  0  0
   -2.6401   -3.1891    0.0000 N   0  0  0  0  0  0  0  0  0  0  0  0
   -1.2135   -2.7256    0.0000 C   0  0  0  0  0  0  0  0  0  0  0  0
   -0.0000   -3.6073    0.0000 C   0  0  0  0  0  0  0  0  0  0  0  0
    1.2135   -2.7256    0.0000 N   0  0  0  0  0  0  0  0  0  0  0  0
    0.7500   -1.2990    0.0000 C   0  0  0  0  0  0  0  0  0  0  0  0
    1.5000    0.0000    0.0000 C   0  0  0  0  0  0  0  0  0  0  0  0
    0.7500    1.2990    0.0000 C   0  0  0  0  0  0  0  0  0  0  0  0
   -0.7500    1.2990    0.0000 C   0  0  0  0  0  0  0  0  0  0  0  0
   -1.5000    2.5981    0.0000 N   0  0  0  0  0  0  0  0  0  0  0  0
   -2.9918    2.7549    0.0000 C   0  0  0  0  0  0  0  0  0  0  0  0
   -3.3037    4.2221    0.0000 C   0  0  0  0  0  0  0  0  0  0  0  0
   -2.0046    4.9721    0.0000 C   0  0  0  0  0  0  0  0  0  0  0  0
   -0.8899    3.9684    0.0000 C   0  0  0  0  0  0  0  0  0  0  0  0
    0.5773    4.2803    0.0000 C   0  0  0  0  0  0  0  0  0  0  0  0
    1.5810    3.1655    0.0000 C   0  0  0  0  0  0  0  0  0  0  0  0
    3.0482    3.4774    0.0000 C   0  0  0  0  0  0  0  0  0  0  0  0
    4.0519    2.3627    0.0000 F   0  0  0  0  0  0  0  0  0  0  0  0
    3.5118    4.9040    0.0000 C   0  0  0  0  0  0  0  0  0  0  0  0
    2.5081    6.0187    0.0000 C   0  0  0  0  0  0  0  0  0  0  0  0
    1.0409    5.7068    0.0000 C   0  0  0  0  0  0  0  0  0  0  0  0
    0.0372    6.8216    0.0000 F   0  0  0  0  0  0  0  0  0  0  0  0
   -1.5000    0.0000    0.0000 N   0  0  0  0  0  0  0  0  0  0  0  0
   -0.7500   -1.2990    0.0000 N   0  0  0  0  0  0  0  0  0  0  0  0
   -3.5757   -7.5908    0.0000 C   0  0  0  0  0  0  0  0  0  0  0  0
  1  2  3  0
  2  3  1  0
  3  4  2  0
  4  5  1  0
  5  6  2  0
  6  7  1  0
  7  8  1  0
  8  9  1  0
  9 10  2  0
  9 11  1  0
 11 12  1  0
 12 13  2  0
 13 14  1  0
 14 15  2  0
 15 16  1  0
 16 17  2  0
 17 18  1  0
 18 19  1  0
 19 20  1  0
 20 21  1  0
 21 22  1  0
 22 23  1  0
 23 24  1  6
 24 25  2  0
 25 26  1  0
 26 27  1  0
 26 28  2  0
 28 29  1  0
 29 30  2  0
 30 31  1  0
 18 32  2  0
 32 33  1  0
  7 34  2  0
 34  3  1  0
 33 12  1  0
 33 15  1  0
 23 19  1  0
 30 24  1  0
M  END
>  <Compound_ID>  (515) 
CHEMBL4115300

>  <Molecule Name>  (515) 
nan

>  <Molecular Weight>  (515) 
459.46

>  <AlogP>  (515) 
4.86

>  <Smiles>  (515) 
N#Cc1cccc(NC(=O)Nc2cnc3ccc(N4CCC[C@@H]4c4cc(F)ccc4F)nn23)c1

>  <Standard Type>  (515) 
IC50

>  <Standard Relation>  (515) 
'='

>  <Standard Units>  (515) 
nM

>  <Standard Value>  (515) 
74.2

>  <Assay ChEMBL ID>  (515) 
CHEMBL3887826

>  <Assay Description>  (515) 
ELISA Assay: An enzyme-linked immunosorbant assay (ELISA) was used to assess TrkA kinase activity in the presence of inhibitors. Immulon 4HBX 384-well microtiter plates (Thermo part #8755) were coated with a 0.025 mg/mL solution of poly (Glu, Ala, Tyr; 6:3:1; Sigma P3899). Various concentrations of test compound, 2.5 nM TrkA (Invitrogen Corp., histidine-tagged recombinant human TrkA, cytoplasmic domain), and 500 uM ATP were incubated for 25 minutes at ambient temperature in the coated plates while shaking. The assay buffer consisted of 25 mM MOPS pH 7.5, 0.005% (v/v) Triton X-100 and 5 mM MgCl2. The reaction mixture was removed from the plate by washing with PBS containing 0.1% (v/v) Tween 20. The phosphorylated reaction product was detected using 0.2 ug/mL of a phosphotyrosine specific monoclonal antibody (clone PY20) conjugated to horseradish peroxidase in conjunction with the TMB Peroxidase Substrate System (KPL).

>  <BAO Format ID>  (515) 
BAO_0000357

>  <BAO Label>  (515) 
single protein format

>  <Assay Organism>  (515) 
None

>  <Target ChEMBL ID>  (515) 
CHEMBL2815

>  <Target Name>  (515) 
Nerve growth factor receptor Trk-A

>  <Target Organism>  (515) 
Homo sapiens

>  <Target Type>  (515) 
SINGLE PROTEIN

>  <Document ChEMBL ID>  (515) 
CHEMBL3886465

>  <Source Description>  (515) 
BindingDB Database

>  <Document Journal>  (515) 
nan

>  <Document Year>  (515) 
2016.0

>  <Active>  (515) 
1.0

>  <bits>  (515) 
<rdkit.DataStructs.cDataStructs.ExplicitBitVect object at 0x00000159F5473E60>

>  <Group>  (515) 
G2

$$$$

     RDKit          2D

 31 35  0  0  0  0  0  0  0  0999 V2000
   -1.8373   -5.6601    0.0000 O   0  0  0  0  0  0  0  0  0  0  0  0
   -2.9520   -4.6564    0.0000 C   0  0  0  0  0  0  0  0  0  0  0  0
   -2.6401   -3.1891    0.0000 N   0  0  0  0  0  0  0  0  0  0  0  0
   -1.2135   -2.7256    0.0000 C   0  0  0  0  0  0  0  0  0  0  0  0
   -0.0000   -3.6073    0.0000 C   0  0  0  0  0  0  0  0  0  0  0  0
    1.2135   -2.7256    0.0000 N   0  0  0  0  0  0  0  0  0  0  0  0
    0.7500   -1.2990    0.0000 C   0  0  0  0  0  0  0  0  0  0  0  0
    1.5000    0.0000    0.0000 C   0  0  0  0  0  0  0  0  0  0  0  0
    0.7500    1.2990    0.0000 C   0  0  0  0  0  0  0  0  0  0  0  0
   -0.7500    1.2990    0.0000 C   0  0  0  0  0  0  0  0  0  0  0  0
   -1.5000    2.5981    0.0000 N   0  0  0  0  0  0  0  0  0  0  0  0
   -2.9918    2.7549    0.0000 C   0  0  0  0  0  0  0  0  0  0  0  0
   -3.3037    4.2221    0.0000 C   0  0  0  0  0  0  0  0  0  0  0  0
   -2.0046    4.9721    0.0000 C   0  0  0  0  0  0  0  0  0  0  0  0
   -0.8899    3.9684    0.0000 C   0  0  0  0  0  0  0  0  0  0  0  0
    0.5773    4.2803    0.0000 C   0  0  0  0  0  0  0  0  0  0  0  0
    1.5810    3.1655    0.0000 C   0  0  0  0  0  0  0  0  0  0  0  0
    3.0482    3.4774    0.0000 C   0  0  0  0  0  0  0  0  0  0  0  0
    4.0519    2.3627    0.0000 F   0  0  0  0  0  0  0  0  0  0  0  0
    3.5118    4.9040    0.0000 C   0  0  0  0  0  0  0  0  0  0  0  0
    2.5081    6.0187    0.0000 C   0  0  0  0  0  0  0  0  0  0  0  0
    1.0409    5.7068    0.0000 C   0  0  0  0  0  0  0  0  0  0  0  0
    0.0372    6.8216    0.0000 F   0  0  0  0  0  0  0  0  0  0  0  0
   -1.5000    0.0000    0.0000 N   0  0  0  0  0  0  0  0  0  0  0  0
   -0.7500   -1.2990    0.0000 N   0  0  0  0  0  0  0  0  0  0  0  0
   -4.3786   -5.1199    0.0000 N   0  0  0  0  0  0  0  0  0  0  0  0
   -5.4933   -4.1162    0.0000 C   0  0  0  0  0  0  0  0  0  0  0  0
   -6.9199   -4.5797    0.0000 C   0  0  0  0  0  0  0  0  0  0  0  0
   -7.2317   -6.0469    0.0000 C   0  0  0  0  0  0  0  0  0  0  0  0
   -6.1170   -7.0506    0.0000 C   0  0  0  0  0  0  0  0  0  0  0  0
   -4.6904   -6.5871    0.0000 C   0  0  0  0  0  0  0  0  0  0  0  0
  1  2  2  0
  2  3  1  0
  3  4  1  0
  4  5  2  0
  5  6  1  0
  6  7  2  0
  7  8  1  0
  8  9  2  0
  9 10  1  0
 10 11  1  0
 11 12  1  0
 12 13  1  0
 13 14  1  0
 14 15  1  0
 15 16  1  6
 16 17  2  0
 17 18  1  0
 18 19  1  0
 18 20  2  0
 20 21  1  0
 21 22  2  0
 22 23  1  0
 10 24  2  0
 24 25  1  0
  2 26  1  0
 26 27  1  0
 27 28  1  0
 28 29  1  0
 29 30  1  0
 30 31  1  0
 25  4  1  0
 31 26  1  0
 25  7  1  0
 15 11  1  0
 22 16  1  0
M  END
>  <Compound_ID>  (516) 
CHEMBL4106554

>  <Molecule Name>  (516) 
nan

>  <Molecular Weight>  (516) 
426.47

>  <AlogP>  (516) 
4.37

>  <Smiles>  (516) 
O=C(Nc1cnc2ccc(N3CCC[C@@H]3c3cc(F)ccc3F)nn12)N1CCCCC1

>  <Standard Type>  (516) 
IC50

>  <Standard Relation>  (516) 
'='

>  <Standard Units>  (516) 
nM

>  <Standard Value>  (516) 
7.1

>  <Assay ChEMBL ID>  (516) 
CHEMBL3887826

>  <Assay Description>  (516) 
ELISA Assay: An enzyme-linked immunosorbant assay (ELISA) was used to assess TrkA kinase activity in the presence of inhibitors. Immulon 4HBX 384-well microtiter plates (Thermo part #8755) were coated with a 0.025 mg/mL solution of poly (Glu, Ala, Tyr; 6:3:1; Sigma P3899). Various concentrations of test compound, 2.5 nM TrkA (Invitrogen Corp., histidine-tagged recombinant human TrkA, cytoplasmic domain), and 500 uM ATP were incubated for 25 minutes at ambient temperature in the coated plates while shaking. The assay buffer consisted of 25 mM MOPS pH 7.5, 0.005% (v/v) Triton X-100 and 5 mM MgCl2. The reaction mixture was removed from the plate by washing with PBS containing 0.1% (v/v) Tween 20. The phosphorylated reaction product was detected using 0.2 ug/mL of a phosphotyrosine specific monoclonal antibody (clone PY20) conjugated to horseradish peroxidase in conjunction with the TMB Peroxidase Substrate System (KPL).

>  <BAO Format ID>  (516) 
BAO_0000357

>  <BAO Label>  (516) 
single protein format

>  <Assay Organism>  (516) 
None

>  <Target ChEMBL ID>  (516) 
CHEMBL2815

>  <Target Name>  (516) 
Nerve growth factor receptor Trk-A

>  <Target Organism>  (516) 
Homo sapiens

>  <Target Type>  (516) 
SINGLE PROTEIN

>  <Document ChEMBL ID>  (516) 
CHEMBL3886465

>  <Source Description>  (516) 
BindingDB Database

>  <Document Journal>  (516) 
nan

>  <Document Year>  (516) 
2016.0

>  <Active>  (516) 
1.0

>  <bits>  (516) 
<rdkit.DataStructs.cDataStructs.ExplicitBitVect object at 0x00000159F54737D0>

>  <Group>  (516) 
G2

$$$$

     RDKit          2D

 31 35  0  0  0  0  0  0  0  0999 V2000
   -1.8373   -5.6601    0.0000 O   0  0  0  0  0  0  0  0  0  0  0  0
   -2.9520   -4.6564    0.0000 C   0  0  0  0  0  0  0  0  0  0  0  0
   -2.6401   -3.1891    0.0000 N   0  0  0  0  0  0  0  0  0  0  0  0
   -1.2135   -2.7256    0.0000 C   0  0  0  0  0  0  0  0  0  0  0  0
   -0.0000   -3.6073    0.0000 C   0  0  0  0  0  0  0  0  0  0  0  0
    1.2135   -2.7256    0.0000 N   0  0  0  0  0  0  0  0  0  0  0  0
    0.7500   -1.2990    0.0000 N   0  0  0  0  0  0  0  0  0  0  0  0
    1.5000    0.0000    0.0000 C   0  0  0  0  0  0  0  0  0  0  0  0
    0.7500    1.2990    0.0000 C   0  0  0  0  0  0  0  0  0  0  0  0
   -0.7500    1.2990    0.0000 C   0  0  0  0  0  0  0  0  0  0  0  0
   -1.5000    2.5981    0.0000 N   0  0  0  0  0  0  0  0  0  0  0  0
   -2.9918    2.7549    0.0000 C   0  0  0  0  0  0  0  0  0  0  0  0
   -3.3037    4.2221    0.0000 C   0  0  0  0  0  0  0  0  0  0  0  0
   -2.0046    4.9721    0.0000 C   0  0  0  0  0  0  0  0  0  0  0  0
   -0.8899    3.9684    0.0000 C   0  0  0  0  0  0  0  0  0  0  0  0
    0.5773    4.2803    0.0000 C   0  0  0  0  0  0  0  0  0  0  0  0
    1.5810    3.1655    0.0000 C   0  0  0  0  0  0  0  0  0  0  0  0
    3.0482    3.4774    0.0000 C   0  0  0  0  0  0  0  0  0  0  0  0
    4.0519    2.3627    0.0000 F   0  0  0  0  0  0  0  0  0  0  0  0
    3.5118    4.9040    0.0000 C   0  0  0  0  0  0  0  0  0  0  0  0
    2.5081    6.0187    0.0000 C   0  0  0  0  0  0  0  0  0  0  0  0
    1.0409    5.7068    0.0000 C   0  0  0  0  0  0  0  0  0  0  0  0
    0.0372    6.8216    0.0000 F   0  0  0  0  0  0  0  0  0  0  0  0
   -1.5000    0.0000    0.0000 N   0  0  0  0  0  0  0  0  0  0  0  0
   -0.7500   -1.2990    0.0000 C   0  0  0  0  0  0  0  0  0  0  0  0
   -4.3786   -5.1199    0.0000 C   0  0  0  0  0  0  0  0  0  0  0  0
   -4.8421   -6.5465    0.0000 C   0  0  0  0  0  0  0  0  0  0  0  0
   -6.3421   -6.5465    0.0000 C   0  0  0  0  0  0  0  0  0  0  0  0
   -6.8056   -5.1199    0.0000 C   0  0  0  0  0  0  0  0  0  0  0  0
   -8.2322   -4.6564    0.0000 O   0  0  0  0  0  0  0  0  0  0  0  0
   -5.5921   -4.2382    0.0000 C   0  0  0  0  0  0  0  0  0  0  0  0
  1  2  2  0
  2  3  1  0
  3  4  1  0
  4  5  1  0
  5  6  2  0
  6  7  1  0
  7  8  1  0
  8  9  2  0
  9 10  1  0
 10 11  1  0
 11 12  1  0
 12 13  1  0
 13 14  1  0
 14 15  1  0
 15 16  1  6
 16 17  2  0
 17 18  1  0
 18 19  1  0
 18 20  2  0
 20 21  1  0
 21 22  2  0
 22 23  1  0
 10 24  2  0
 24 25  1  0
 26  2  1  1
 26 27  1  0
 27 28  1  0
 28 29  1  0
 29 30  1  1
 29 31  1  0
 25  4  2  0
 31 26  1  0
 25  7  1  0
 15 11  1  0
 22 16  1  0
M  END
>  <Compound_ID>  (517) 
CHEMBL3905188

>  <Molecule Name>  (517) 
nan

>  <Molecular Weight>  (517) 
427.46

>  <AlogP>  (517) 
3.45

>  <Smiles>  (517) 
O=C(Nc1cnn2ccc(N3CCC[C@@H]3c3cc(F)ccc3F)nc12)[C@H]1CC[C@@H](O)C1

>  <Standard Type>  (517) 
IC50

>  <Standard Relation>  (517) 
'='

>  <Standard Units>  (517) 
nM

>  <Standard Value>  (517) 
20.3

>  <Assay ChEMBL ID>  (517) 
CHEMBL3887076

>  <Assay Description>  (517) 
ELISA Assay: An enzyme-linked immunosorbant assay (ELISA) was used to assess TrkA kinase activity in the presence of inhibitors. Immulon 4HBX 384-well microtiter plates (Thermo part #8755) were coated with a 0.025 mg/mL solution of poly (Glu, Ala, Tyr; 6:3:1; Sigma P3899). Various concentrations of test compound, 2.5 nM TrkA (Invitrogen Corp., histidine-tagged recombinant human TrkA, cytoplasmic domain), and 500 uM ATP were incubated for 25 minutes at ambient temperature in the coated plates while shaking. The assay buffer consisted of 25 mM MOPS pH 7.5, 0.005% (v/v) Triton X-100 and 5 mM MgCl2. The reaction mixture was removed from the plate by washing with PBS containing 0.1% (v/v) Tween 20. The phosphorylated reaction product was detected using 0.2 ug/mL of a phosphotyrosine specific monoclonal antibody (clone PY20) conjugated to horseradish peroxidase in conjunction with the TMB Peroxidase Substrate System (KPL).

>  <BAO Format ID>  (517) 
BAO_0000357

>  <BAO Label>  (517) 
single protein format

>  <Assay Organism>  (517) 
None

>  <Target ChEMBL ID>  (517) 
CHEMBL2815

>  <Target Name>  (517) 
Nerve growth factor receptor Trk-A

>  <Target Organism>  (517) 
Homo sapiens

>  <Target Type>  (517) 
SINGLE PROTEIN

>  <Document ChEMBL ID>  (517) 
CHEMBL3886151

>  <Source Description>  (517) 
BindingDB Database

>  <Document Journal>  (517) 
nan

>  <Document Year>  (517) 
2014.0

>  <Active>  (517) 
1.0

>  <bits>  (517) 
<rdkit.DataStructs.cDataStructs.ExplicitBitVect object at 0x00000159F5473760>

>  <Group>  (517) 
G2

$$$$

     RDKit          2D

 33 37  0  0  0  0  0  0  0  0999 V2000
   -1.8373   -5.6601    0.0000 O   0  0  0  0  0  0  0  0  0  0  0  0
   -2.9520   -4.6564    0.0000 C   0  0  0  0  0  0  0  0  0  0  0  0
   -4.3786   -5.1199    0.0000 N   0  0  0  0  0  0  0  0  0  0  0  0
   -4.6904   -6.5871    0.0000 C   0  0  0  0  0  0  0  0  0  0  0  0
   -6.1170   -7.0506    0.0000 C   0  0  0  0  0  0  0  0  0  0  0  0
   -6.4289   -8.5179    0.0000 C   0  0  0  0  0  0  0  0  0  0  0  0
   -5.3142   -9.5216    0.0000 C   0  0  0  0  0  0  0  0  0  0  0  0
   -5.6260  -10.9888    0.0000 F   0  0  0  0  0  0  0  0  0  0  0  0
   -3.8876   -9.0580    0.0000 C   0  0  0  0  0  0  0  0  0  0  0  0
   -3.5757   -7.5908    0.0000 C   0  0  0  0  0  0  0  0  0  0  0  0
   -2.6401   -3.1891    0.0000 N   0  0  0  0  0  0  0  0  0  0  0  0
   -1.2135   -2.7256    0.0000 C   0  0  0  0  0  0  0  0  0  0  0  0
   -0.0000   -3.6073    0.0000 C   0  0  0  0  0  0  0  0  0  0  0  0
    1.2135   -2.7256    0.0000 N   0  0  0  0  0  0  0  0  0  0  0  0
    0.7500   -1.2990    0.0000 N   0  0  0  0  0  0  0  0  0  0  0  0
    1.5000    0.0000    0.0000 C   0  0  0  0  0  0  0  0  0  0  0  0
    0.7500    1.2990    0.0000 C   0  0  0  0  0  0  0  0  0  0  0  0
   -0.7500    1.2990    0.0000 C   0  0  0  0  0  0  0  0  0  0  0  0
   -1.5000    2.5981    0.0000 N   0  0  0  0  0  0  0  0  0  0  0  0
   -2.9918    2.7549    0.0000 C   0  0  0  0  0  0  0  0  0  0  0  0
   -3.3037    4.2221    0.0000 C   0  0  0  0  0  0  0  0  0  0  0  0
   -2.0046    4.9721    0.0000 C   0  0  0  0  0  0  0  0  0  0  0  0
   -0.8899    3.9684    0.0000 C   0  0  0  0  0  0  0  0  0  0  0  0
    0.5773    4.2803    0.0000 C   0  0  0  0  0  0  0  0  0  0  0  0
    1.5810    3.1655    0.0000 C   0  0  0  0  0  0  0  0  0  0  0  0
    3.0482    3.4774    0.0000 C   0  0  0  0  0  0  0  0  0  0  0  0
    4.0519    2.3627    0.0000 F   0  0  0  0  0  0  0  0  0  0  0  0
    3.5118    4.9040    0.0000 C   0  0  0  0  0  0  0  0  0  0  0  0
    2.5081    6.0187    0.0000 C   0  0  0  0  0  0  0  0  0  0  0  0
    1.0409    5.7068    0.0000 C   0  0  0  0  0  0  0  0  0  0  0  0
    0.0372    6.8216    0.0000 F   0  0  0  0  0  0  0  0  0  0  0  0
   -1.5000    0.0000    0.0000 N   0  0  0  0  0  0  0  0  0  0  0  0
   -0.7500   -1.2990    0.0000 C   0  0  0  0  0  0  0  0  0  0  0  0
  1  2  2  0
  2  3  1  0
  3  4  1  0
  4  5  2  0
  5  6  1  0
  6  7  2  0
  7  8  1  0
  7  9  1  0
  9 10  2  0
  2 11  1  0
 11 12  1  0
 12 13  1  0
 13 14  2  0
 14 15  1  0
 15 16  1  0
 16 17  2  0
 17 18  1  0
 18 19  1  0
 19 20  1  0
 20 21  1  0
 21 22  1  0
 22 23  1  0
 23 24  1  6
 24 25  2  0
 25 26  1  0
 26 27  1  0
 26 28  2  0
 28 29  1  0
 29 30  2  0
 30 31  1  0
 18 32  2  0
 32 33  1  0
 10  4  1  0
 33 12  2  0
 33 15  1  0
 23 19  1  0
 30 24  1  0
M  END
>  <Compound_ID>  (518) 
CHEMBL4111852

>  <Molecule Name>  (518) 
nan

>  <Molecular Weight>  (518) 
452.44

>  <AlogP>  (518) 
5.13

>  <Smiles>  (518) 
O=C(Nc1ccc(F)cc1)Nc1cnn2ccc(N3CCC[C@@H]3c3cc(F)ccc3F)nc12

>  <Standard Type>  (518) 
IC50

>  <Standard Relation>  (518) 
'='

>  <Standard Units>  (518) 
nM

>  <Standard Value>  (518) 
4.6

>  <Assay ChEMBL ID>  (518) 
CHEMBL3887076

>  <Assay Description>  (518) 
ELISA Assay: An enzyme-linked immunosorbant assay (ELISA) was used to assess TrkA kinase activity in the presence of inhibitors. Immulon 4HBX 384-well microtiter plates (Thermo part #8755) were coated with a 0.025 mg/mL solution of poly (Glu, Ala, Tyr; 6:3:1; Sigma P3899). Various concentrations of test compound, 2.5 nM TrkA (Invitrogen Corp., histidine-tagged recombinant human TrkA, cytoplasmic domain), and 500 uM ATP were incubated for 25 minutes at ambient temperature in the coated plates while shaking. The assay buffer consisted of 25 mM MOPS pH 7.5, 0.005% (v/v) Triton X-100 and 5 mM MgCl2. The reaction mixture was removed from the plate by washing with PBS containing 0.1% (v/v) Tween 20. The phosphorylated reaction product was detected using 0.2 ug/mL of a phosphotyrosine specific monoclonal antibody (clone PY20) conjugated to horseradish peroxidase in conjunction with the TMB Peroxidase Substrate System (KPL).

>  <BAO Format ID>  (518) 
BAO_0000357

>  <BAO Label>  (518) 
single protein format

>  <Assay Organism>  (518) 
None

>  <Target ChEMBL ID>  (518) 
CHEMBL2815

>  <Target Name>  (518) 
Nerve growth factor receptor Trk-A

>  <Target Organism>  (518) 
Homo sapiens

>  <Target Type>  (518) 
SINGLE PROTEIN

>  <Document ChEMBL ID>  (518) 
CHEMBL3886151

>  <Source Description>  (518) 
BindingDB Database

>  <Document Journal>  (518) 
nan

>  <Document Year>  (518) 
2014.0

>  <Active>  (518) 
1.0

>  <bits>  (518) 
<rdkit.DataStructs.cDataStructs.ExplicitBitVect object at 0x00000159F5472C00>

>  <Group>  (518) 
G2

$$$$

     RDKit          2D

 29 32  0  0  0  0  0  0  0  0999 V2000
   -0.7500   -3.8971    0.0000 C   0  0  0  0  0  0  0  0  0  0  0  0
    0.7500   -3.8971    0.0000 C   0  0  0  0  0  0  0  0  0  0  0  0
    1.5000   -2.5981    0.0000 N   0  0  0  0  0  0  0  0  0  0  0  0
    0.7500   -1.2990    0.0000 C   0  0  0  0  0  0  0  0  0  0  0  0
    1.5000    0.0000    0.0000 C   0  0  0  0  0  0  0  0  0  0  0  0
    0.7500    1.2990    0.0000 C   0  0  0  0  0  0  0  0  0  0  0  0
   -0.7500    1.2990    0.0000 N   0  0  0  0  0  0  0  0  0  0  0  0
   -1.7537    2.4138    0.0000 N   0  0  0  0  0  0  0  0  0  0  0  0
   -3.1240    1.8037    0.0000 C   0  0  0  0  0  0  0  0  0  0  0  0
   -2.9672    0.3119    0.0000 C   0  0  0  0  0  0  0  0  0  0  0  0
   -4.0819   -0.6918    0.0000 N   0  0  0  0  0  0  0  0  0  0  0  0
   -5.5085   -0.2283    0.0000 C   0  0  0  0  0  0  0  0  0  0  0  0
   -5.8204    1.2389    0.0000 O   0  0  0  0  0  0  0  0  0  0  0  0
   -6.6232   -1.2320    0.0000 N   0  0  0  0  0  0  0  0  0  0  0  0
   -6.4664   -2.7238    0.0000 C   0  0  0  0  0  0  0  0  0  0  0  0
   -7.8368   -3.3339    0.0000 C   0  0  0  0  0  0  0  0  0  0  0  0
   -8.8405   -2.2192    0.0000 C   0  0  0  0  0  0  0  0  0  0  0  0
  -10.3322   -2.3760    0.0000 O   0  0  0  0  0  0  0  0  0  0  0  0
   -8.0905   -0.9201    0.0000 C   0  0  0  0  0  0  0  0  0  0  0  0
   -1.5000    0.0000    0.0000 C   0  0  0  0  0  0  0  0  0  0  0  0
   -0.7500   -1.2990    0.0000 N   0  0  0  0  0  0  0  0  0  0  0  0
    1.5000   -5.1962    0.0000 C   0  0  0  0  0  0  0  0  0  0  0  0
    3.0000   -5.1962    0.0000 C   0  0  0  0  0  0  0  0  0  0  0  0
    3.7500   -6.4952    0.0000 C   0  0  0  0  0  0  0  0  0  0  0  0
    5.2500   -6.4952    0.0000 F   0  0  0  0  0  0  0  0  0  0  0  0
    3.0000   -7.7942    0.0000 C   0  0  0  0  0  0  0  0  0  0  0  0
    1.5000   -7.7942    0.0000 C   0  0  0  0  0  0  0  0  0  0  0  0
    0.7500   -6.4952    0.0000 C   0  0  0  0  0  0  0  0  0  0  0  0
   -0.7500   -6.4952    0.0000 F   0  0  0  0  0  0  0  0  0  0  0  0
  2  1  1  1
  2  3  1  0
  3  4  1  0
  4  5  1  0
  5  6  2  0
  6  7  1  0
  7  8  1  0
  8  9  2  0
  9 10  1  0
 10 11  1  0
 11 12  1  0
 12 13  2  0
 12 14  1  0
 14 15  1  0
 15 16  1  0
 16 17  1  0
 17 18  1  6
 17 19  1  0
 10 20  2  0
 20 21  1  0
  2 22  1  0
 22 23  2  0
 23 24  1  0
 24 25  1  0
 24 26  2  0
 26 27  1  0
 27 28  2  0
 28 29  1  0
 21  4  2  0
 28 22  1  0
 20  7  1  0
 19 14  1  0
M  END
>  <Compound_ID>  (519) 
CHEMBL4784645

>  <Molecule Name>  (519) 
nan

>  <Molecular Weight>  (519) 
402.41

>  <AlogP>  (519) 
2.78

>  <Smiles>  (519) 
C[C@@H](Nc1ccn2ncc(NC(=O)N3CC[C@H](O)C3)c2n1)c1cc(F)ccc1F

>  <Standard Type>  (519) 
IC50

>  <Standard Relation>  (519) 
'='

>  <Standard Units>  (519) 
nM

>  <Standard Value>  (519) 
1.9

>  <Assay ChEMBL ID>  (519) 
CHEMBL4678168

>  <Assay Description>  (519) 
Inhibition of Trk-A (unknown origin)

>  <BAO Format ID>  (519) 
BAO_0000357

>  <BAO Label>  (519) 
single protein format

>  <Assay Organism>  (519) 
Homo sapiens

>  <Target ChEMBL ID>  (519) 
CHEMBL2815

>  <Target Name>  (519) 
Nerve growth factor receptor Trk-A

>  <Target Organism>  (519) 
Homo sapiens

>  <Target Type>  (519) 
SINGLE PROTEIN

>  <Document ChEMBL ID>  (519) 
CHEMBL4673327

>  <Source Description>  (519) 
Scientific Literature

>  <Document Journal>  (519) 
Bioorg Med Chem Lett

>  <Document Year>  (519) 
2021.0

>  <Active>  (519) 
1.0

>  <bits>  (519) 
<rdkit.DataStructs.cDataStructs.ExplicitBitVect object at 0x00000159F5471D90>

>  <Group>  (519) 
G2

$$$$

     RDKit          2D

 32 36  0  0  0  0  0  0  0  0999 V2000
   -7.0187   -9.6927    0.0000 C   0  0  0  0  0  0  0  0  0  0  0  0
   -5.9040   -8.6890    0.0000 N   0  0  0  0  0  0  0  0  0  0  0  0
   -4.4367   -9.0009    0.0000 C   0  0  0  0  0  0  0  0  0  0  0  0
   -3.6867   -7.7018    0.0000 N   0  0  0  0  0  0  0  0  0  0  0  0
   -4.6904   -6.5871    0.0000 C   0  0  0  0  0  0  0  0  0  0  0  0
   -4.3786   -5.1199    0.0000 C   0  0  0  0  0  0  0  0  0  0  0  0
   -2.9520   -4.6564    0.0000 N   0  0  0  0  0  0  0  0  0  0  0  0
   -2.6401   -3.1891    0.0000 C   0  0  0  0  0  0  0  0  0  0  0  0
   -3.7548   -2.1855    0.0000 O   0  0  0  0  0  0  0  0  0  0  0  0
   -1.2135   -2.7256    0.0000 C   0  0  0  0  0  0  0  0  0  0  0  0
   -0.0000   -3.6073    0.0000 C   0  0  0  0  0  0  0  0  0  0  0  0
    1.2135   -2.7256    0.0000 N   0  0  0  0  0  0  0  0  0  0  0  0
    0.7500   -1.2990    0.0000 N   0  0  0  0  0  0  0  0  0  0  0  0
    1.5000    0.0000    0.0000 C   0  0  0  0  0  0  0  0  0  0  0  0
    0.7500    1.2990    0.0000 C   0  0  0  0  0  0  0  0  0  0  0  0
   -0.7500    1.2990    0.0000 C   0  0  0  0  0  0  0  0  0  0  0  0
   -1.5000    2.5981    0.0000 N   0  0  0  0  0  0  0  0  0  0  0  0
   -2.9918    2.7549    0.0000 C   0  0  0  0  0  0  0  0  0  0  0  0
   -3.3037    4.2221    0.0000 C   0  0  0  0  0  0  0  0  0  0  0  0
   -2.0046    4.9721    0.0000 C   0  0  0  0  0  0  0  0  0  0  0  0
   -0.8899    3.9684    0.0000 C   0  0  0  0  0  0  0  0  0  0  0  0
    0.5773    4.2803    0.0000 C   0  0  0  0  0  0  0  0  0  0  0  0
    1.5810    3.1655    0.0000 C   0  0  0  0  0  0  0  0  0  0  0  0
    3.0482    3.4774    0.0000 C   0  0  0  0  0  0  0  0  0  0  0  0
    4.0519    2.3627    0.0000 F   0  0  0  0  0  0  0  0  0  0  0  0
    3.5118    4.9040    0.0000 C   0  0  0  0  0  0  0  0  0  0  0  0
    2.5081    6.0187    0.0000 C   0  0  0  0  0  0  0  0  0  0  0  0
    1.0409    5.7068    0.0000 C   0  0  0  0  0  0  0  0  0  0  0  0
    0.0372    6.8216    0.0000 F   0  0  0  0  0  0  0  0  0  0  0  0
   -1.5000    0.0000    0.0000 N   0  0  0  0  0  0  0  0  0  0  0  0
   -0.7500   -1.2990    0.0000 C   0  0  0  0  0  0  0  0  0  0  0  0
   -6.0607   -7.1972    0.0000 C   0  0  0  0  0  0  0  0  0  0  0  0
  1  2  1  0
  2  3  1  0
  3  4  2  0
  4  5  1  0
  5  6  1  0
  6  7  1  0
  7  8  1  0
  8  9  2  0
  8 10  1  0
 10 11  1  0
 11 12  2  0
 12 13  1  0
 13 14  1  0
 14 15  2  0
 15 16  1  0
 16 17  1  0
 17 18  1  0
 18 19  1  0
 19 20  1  0
 20 21  1  0
 21 22  1  6
 22 23  2  0
 23 24  1  0
 24 25  1  0
 24 26  2  0
 26 27  1  0
 27 28  2  0
 28 29  1  0
 16 30  2  0
 30 31  1  0
  5 32  2  0
 32  2  1  0
 31 10  2  0
 31 13  1  0
 21 17  1  0
 28 22  1  0
M  END
>  <Compound_ID>  (520) 
CHEMBL3671149

>  <Molecule Name>  (520) 
nan

>  <Molecular Weight>  (520) 
437.45

>  <AlogP>  (520) 
3.01

>  <Smiles>  (520) 
Cn1cnc(CNC(=O)c2cnn3ccc(N4CCC[C@@H]4c4cc(F)ccc4F)nc23)c1

>  <Standard Type>  (520) 
IC50

>  <Standard Relation>  (520) 
'='

>  <Standard Units>  (520) 
nM

>  <Standard Value>  (520) 
2.95

>  <Assay ChEMBL ID>  (520) 
CHEMBL3887070

>  <Assay Description>  (520) 
ELISA Assay: An enzyme-linked immunosorbant assay (ELISA) was used to assess TrkA kinase activity in the presence of inhibitors. Immulon 4HBX 384-well microtiter plates (Thermo part #8755) were coated with a 0.025 mg/mL solution of poly (Glu, Ala, Tyr; 6:3:1; Sigma P3899). Various concentrations of test compound, 2.5 nM TrkA (Invitrogen Corp., histidine-tagged recombinant human TrkA, cytoplasmic domain), and 500 uM ATP were incubated for 25 minutes at ambient temperature in the coated plates while shaking The assay buffer consisted of 25 mM MOPS pH 7.5, 0.005% (v/v) Triton X-100 and 5 mM MgCl2. The reaction mixture was removed from the plate by washing with PBS containing 0.1% (v/v) Tween 20. The phosphorylated reaction product was detected using 0.2 ug/mL of a phosphotyrosine specific monoclonal antibody (clone PY20) conjugated to horseradish peroxidase in conjunction with the TMB Peroxidase Substrate System (KPL).

>  <BAO Format ID>  (520) 
BAO_0000357

>  <BAO Label>  (520) 
single protein format

>  <Assay Organism>  (520) 
None

>  <Target ChEMBL ID>  (520) 
CHEMBL2815

>  <Target Name>  (520) 
Nerve growth factor receptor Trk-A

>  <Target Organism>  (520) 
Homo sapiens

>  <Target Type>  (520) 
SINGLE PROTEIN

>  <Document ChEMBL ID>  (520) 
CHEMBL3638907

>  <Source Description>  (520) 
BindingDB Database

>  <Document Journal>  (520) 
nan

>  <Document Year>  (520) 
2014.0

>  <Active>  (520) 
1.0

>  <bits>  (520) 
<rdkit.DataStructs.cDataStructs.ExplicitBitVect object at 0x00000159F54711C0>

>  <Group>  (520) 
G2

$$$$

     RDKit          2D

 32 35  0  0  0  0  0  0  0  0999 V2000
   -0.7500   -3.8971    0.0000 C   0  0  0  0  0  0  0  0  0  0  0  0
    0.7500   -3.8971    0.0000 C   0  0  0  0  0  0  0  0  0  0  0  0
    1.5000   -2.5981    0.0000 N   0  0  0  0  0  0  0  0  0  0  0  0
    0.7500   -1.2990    0.0000 C   0  0  0  0  0  0  0  0  0  0  0  0
    1.5000    0.0000    0.0000 C   0  0  0  0  0  0  0  0  0  0  0  0
    0.7500    1.2990    0.0000 C   0  0  0  0  0  0  0  0  0  0  0  0
   -0.7500    1.2990    0.0000 N   0  0  0  0  0  0  0  0  0  0  0  0
   -1.7537    2.4138    0.0000 N   0  0  0  0  0  0  0  0  0  0  0  0
   -3.1240    1.8037    0.0000 C   0  0  0  0  0  0  0  0  0  0  0  0
   -2.9672    0.3119    0.0000 C   0  0  0  0  0  0  0  0  0  0  0  0
   -4.0819   -0.6918    0.0000 C   0  0  0  0  0  0  0  0  0  0  0  0
   -3.9251   -2.1836    0.0000 C   0  0  0  0  0  0  0  0  0  0  0  0
   -5.2955   -2.7937    0.0000 N   0  0  0  0  0  0  0  0  0  0  0  0
   -6.2992   -1.6790    0.0000 N   0  0  0  0  0  0  0  0  0  0  0  0
   -7.7909   -1.8358    0.0000 C   0  0  0  0  0  0  0  0  0  0  0  0
   -8.6726   -0.6223    0.0000 C   0  0  0  0  0  0  0  0  0  0  0  0
  -10.1644   -0.7791    0.0000 O   0  0  0  0  0  0  0  0  0  0  0  0
   -5.5492   -0.3800    0.0000 C   0  0  0  0  0  0  0  0  0  0  0  0
   -1.5000    0.0000    0.0000 C   0  0  0  0  0  0  0  0  0  0  0  0
   -0.7500   -1.2990    0.0000 N   0  0  0  0  0  0  0  0  0  0  0  0
    1.5000   -5.1962    0.0000 C   0  0  0  0  0  0  0  0  0  0  0  0
    3.0000   -5.1962    0.0000 C   0  0  0  0  0  0  0  0  0  0  0  0
    3.7500   -6.4952    0.0000 C   0  0  0  0  0  0  0  0  0  0  0  0
    5.2500   -6.4952    0.0000 F   0  0  0  0  0  0  0  0  0  0  0  0
    3.0000   -7.7942    0.0000 C   0  0  0  0  0  0  0  0  0  0  0  0
    1.5000   -7.7942    0.0000 C   0  0  0  0  0  0  0  0  0  0  0  0
    0.7500   -6.4952    0.0000 C   0  0  0  0  0  0  0  0  0  0  0  0
   -0.7500   -6.4952    0.0000 O   0  0  0  0  0  0  0  0  0  0  0  0
   -1.5000   -7.7942    0.0000 C   0  0  0  0  0  0  0  0  0  0  0  0
   -3.0000   -7.7942    0.0000 C   0  0  0  0  0  0  0  0  0  0  0  0
   -3.7500   -9.0933    0.0000 F   0  0  0  0  0  0  0  0  0  0  0  0
   -3.7500   -6.4952    0.0000 F   0  0  0  0  0  0  0  0  0  0  0  0
  2  1  1  1
  2  3  1  0
  3  4  1  0
  4  5  1  0
  5  6  2  0
  6  7  1  0
  7  8  1  0
  8  9  2  0
  9 10  1  0
 10 11  1  0
 11 12  1  0
 12 13  2  0
 13 14  1  0
 14 15  1  0
 15 16  1  0
 16 17  1  0
 14 18  1  0
 10 19  2  0
 19 20  1  0
  2 21  1  0
 21 22  2  0
 22 23  1  0
 23 24  1  0
 23 25  2  0
 25 26  1  0
 26 27  2  0
 27 28  1  0
 28 29  1  0
 29 30  1  0
 30 31  1  0
 30 32  1  0
 20  4  2  0
 27 21  1  0
 19  7  1  0
 18 11  2  0
M  END
>  <Compound_ID>  (521) 
CHEMBL5088000

>  <Molecule Name>  (521) 
nan

>  <Molecular Weight>  (521) 
446.43

>  <AlogP>  (521) 
3.54

>  <Smiles>  (521) 
C[C@@H](Nc1ccn2ncc(-c3cnn(CCO)c3)c2n1)c1cc(F)ccc1OCC(F)F

>  <Standard Type>  (521) 
IC50

>  <Standard Relation>  (521) 
'='

>  <Standard Units>  (521) 
nM

>  <Standard Value>  (521) 
0.7

>  <Assay ChEMBL ID>  (521) 
CHEMBL5035648

>  <Assay Description>  (521) 
Inhibition of wildtype TRKA (unknown origin) preincubated for 30 mins followed by biotinylated TK-peptide substrate addition and measured after 40 mins by FRET-based Z-lyte kinase assay

>  <BAO Format ID>  (521) 
BAO_0000357

>  <BAO Label>  (521) 
single protein format

>  <Assay Organism>  (521) 
Homo sapiens

>  <Target ChEMBL ID>  (521) 
CHEMBL2815

>  <Target Name>  (521) 
Nerve growth factor receptor Trk-A

>  <Target Organism>  (521) 
Homo sapiens

>  <Target Type>  (521) 
SINGLE PROTEIN

>  <Document ChEMBL ID>  (521) 
CHEMBL5034031

>  <Source Description>  (521) 
Scientific Literature

>  <Document Journal>  (521) 
J Med Chem

>  <Document Year>  (521) 
2021.0

>  <Active>  (521) 
1.0

>  <bits>  (521) 
<rdkit.DataStructs.cDataStructs.ExplicitBitVect object at 0x00000159F5470970>

>  <Group>  (521) 
G2

$$$$

     RDKit          2D

 36 39  0  0  0  0  0  0  0  0999 V2000
   -2.1766   -4.6157    0.0000 C   0  0  0  0  0  0  0  0  0  0  0  0
   -2.6401   -3.1891    0.0000 C   0  0  0  0  0  0  0  0  0  0  0  0
   -3.1036   -1.7626    0.0000 C   0  0  0  0  0  0  0  0  0  0  0  0
   -4.0667   -3.6527    0.0000 C   0  0  0  0  0  0  0  0  0  0  0  0
   -5.1814   -2.6490    0.0000 O   0  0  0  0  0  0  0  0  0  0  0  0
   -1.2135   -2.7256    0.0000 N   0  0  0  0  0  0  0  0  0  0  0  0
   -0.0000   -3.6073    0.0000 C   0  0  0  0  0  0  0  0  0  0  0  0
    1.2135   -2.7256    0.0000 C   0  0  0  0  0  0  0  0  0  0  0  0
    2.6401   -3.1891    0.0000 C   0  0  0  0  0  0  0  0  0  0  0  0
    3.7548   -2.1855    0.0000 O   0  0  0  0  0  0  0  0  0  0  0  0
    2.9520   -4.6564    0.0000 C   0  0  0  0  0  0  0  0  0  0  0  0
    1.8373   -5.6601    0.0000 C   0  0  0  0  0  0  0  0  0  0  0  0
    2.1491   -7.1273    0.0000 N   0  0  0  0  0  0  0  0  0  0  0  0
    3.5757   -7.5908    0.0000 C   0  0  0  0  0  0  0  0  0  0  0  0
    4.6904   -6.5871    0.0000 C   0  0  0  0  0  0  0  0  0  0  0  0
    6.1170   -7.0506    0.0000 N   0  0  0  0  0  0  0  0  0  0  0  0
    6.4289   -8.5179    0.0000 C   0  0  0  0  0  0  0  0  0  0  0  0
    5.3142   -9.5216    0.0000 O   0  0  0  0  0  0  0  0  0  0  0  0
    7.8555   -8.9814    0.0000 C   0  0  0  0  0  0  0  0  0  0  0  0
    8.1673  -10.4486    0.0000 N   0  0  0  0  0  0  0  0  0  0  0  0
    9.5377  -11.0587    0.0000 C   0  0  0  0  0  0  0  0  0  0  0  0
    9.3809  -12.5505    0.0000 C   0  0  0  0  0  0  0  0  0  0  0  0
   10.4956  -13.5542    0.0000 C   0  0  0  0  0  0  0  0  0  0  0  0
   11.6103  -14.5579    0.0000 F   0  0  0  0  0  0  0  0  0  0  0  0
    9.4919  -14.6689    0.0000 F   0  0  0  0  0  0  0  0  0  0  0  0
   11.4993  -12.4395    0.0000 F   0  0  0  0  0  0  0  0  0  0  0  0
    7.9136  -12.8624    0.0000 N   0  0  0  0  0  0  0  0  0  0  0  0
    7.1636  -11.5633    0.0000 N   0  0  0  0  0  0  0  0  0  0  0  0
    4.3786   -5.1199    0.0000 C   0  0  0  0  0  0  0  0  0  0  0  0
    0.7500   -1.2990    0.0000 C   0  0  0  0  0  0  0  0  0  0  0  0
    1.5000    0.0000    0.0000 C   0  0  0  0  0  0  0  0  0  0  0  0
    0.7500    1.2990    0.0000 N   0  0  0  0  0  0  0  0  0  0  0  0
   -0.7500    1.2990    0.0000 C   0  0  0  0  0  0  0  0  0  0  0  0
   -1.5000    0.0000    0.0000 C   0  0  0  0  0  0  0  0  0  0  0  0
   -3.0000    0.0000    0.0000 F   0  0  0  0  0  0  0  0  0  0  0  0
   -0.7500   -1.2990    0.0000 C   0  0  0  0  0  0  0  0  0  0  0  0
  1  2  1  0
  2  3  1  0
  2  4  1  0
  4  5  1  0
  2  6  1  0
  6  7  1  0
  7  8  2  0
  8  9  1  0
  9 10  2  0
  9 11  1  0
 11 12  2  0
 12 13  1  0
 13 14  2  0
 14 15  1  0
 15 16  1  0
 16 17  1  0
 17 18  2  0
 17 19  1  0
 19 20  1  0
 20 21  1  0
 21 22  2  0
 22 23  1  0
 23 24  1  0
 23 25  1  0
 23 26  1  0
 22 27  1  0
 27 28  2  0
 15 29  2  0
  8 30  1  0
 30 31  2  0
 31 32  1  0
 32 33  2  0
 33 34  1  0
 34 35  1  0
 34 36  2  0
 36  6  1  0
 29 11  1  0
 36 30  1  0
 28 20  1  0
M  END
>  <Compound_ID>  (522) 
CHEMBL3898527

>  <Molecule Name>  (522) 
nan

>  <Molecular Weight>  (522) 
505.43

>  <AlogP>  (522) 
2.78

>  <Smiles>  (522) 
CC(C)(CO)n1cc(C(=O)c2cncc(NC(=O)Cn3cc(C(F)(F)F)nn3)c2)c2cncc(F)c21

>  <Standard Type>  (522) 
IC50

>  <Standard Relation>  (522) 
'='

>  <Standard Units>  (522) 
nM

>  <Standard Value>  (522) 
20.0

>  <Assay ChEMBL ID>  (522) 
CHEMBL3887111

>  <Assay Description>  (522) 
HTRF Assay: Isolated TRK Enzyme assays use the HTRF KinEASE-TK kit (Cisbio Cat#62TK0PEJ) with recombinant His-tagged cytoplasmic domains of each TRK receptor sourced from Invitrogen (see table below). This activity-assay measures the phosphorylation of tyrosine residues within a substrate from the HTRF kit which has been validated by Cisbio for a variety of tyrosine kinases including the TRK receptors.Assay Details: Invitrogen Amino FAC FAC Assay ReactionTarget Cat# acids enzyme ATP TimeTRKA PV3144 aa 441-4 nM 40 uM 35 min (NTRK1) 796 TRKB PV3616 aa 526-1 nM 1.4 uM 40 min (NTRK2) 838 TRKC PV3617 aa 510- 10 nM 15 uM 30 min (NTRK3) 8250.5 mM stock solutions of test compounds are prepared and serially diluted in 100% DMSO. A standard curve using the compound of Example 135 disclosed in WO2005/116035 of 150 uM is also prepared on each test plate. High percentage effect (HPE) is defined by 150 uM.

>  <BAO Format ID>  (522) 
BAO_0000357

>  <BAO Label>  (522) 
single protein format

>  <Assay Organism>  (522) 
None

>  <Target ChEMBL ID>  (522) 
CHEMBL2815

>  <Target Name>  (522) 
Nerve growth factor receptor Trk-A

>  <Target Organism>  (522) 
Homo sapiens

>  <Target Type>  (522) 
SINGLE PROTEIN

>  <Document ChEMBL ID>  (522) 
CHEMBL3886170

>  <Source Description>  (522) 
BindingDB Database

>  <Document Journal>  (522) 
nan

>  <Document Year>  (522) 
2015.0

>  <Active>  (522) 
1.0

>  <bits>  (522) 
<rdkit.DataStructs.cDataStructs.ExplicitBitVect object at 0x00000159F5470820>

>  <Group>  (522) 
G2

$$$$

     RDKit          2D

 39 44  0  0  0  0  0  0  0  0999 V2000
    3.0000   -0.0000    0.0000 C   0  0  0  0  0  0  0  0  0  0  0  0
    3.7500   -1.2990    0.0000 C   0  0  0  0  0  0  0  0  0  0  0  0
    5.2500   -1.2990    0.0000 C   0  0  0  0  0  0  0  0  0  0  0  0
    6.0000   -2.5981    0.0000 C   0  0  0  0  0  0  0  0  0  0  0  0
    7.5000   -2.5981    0.0000 N   0  0  0  0  0  0  0  0  0  0  0  0
    8.2500   -3.8971    0.0000 C   0  0  0  0  0  0  0  0  0  0  0  0
    7.5000   -5.1962    0.0000 O   0  0  0  0  0  0  0  0  0  0  0  0
    9.7500   -3.8971    0.0000 N   0  0  0  0  0  0  0  0  0  0  0  0
   10.5000   -5.1962    0.0000 C   0  0  0  0  0  0  0  0  0  0  0  0
    9.8899   -6.5665    0.0000 C   0  0  0  0  0  0  0  0  0  0  0  0
   11.0046   -7.5702    0.0000 C   0  0  0  0  0  0  0  0  0  0  0  0
   10.8478   -9.0619    0.0000 C   0  0  0  0  0  0  0  0  0  0  0  0
    9.9661  -10.2755    0.0000 C   0  0  0  0  0  0  0  0  0  0  0  0
   11.4579  -10.4323    0.0000 C   0  0  0  0  0  0  0  0  0  0  0  0
   12.3037   -6.8202    0.0000 N   0  0  0  0  0  0  0  0  0  0  0  0
   11.9918   -5.3529    0.0000 N   0  0  0  0  0  0  0  0  0  0  0  0
   12.9955   -4.2382    0.0000 C   0  0  0  0  0  0  0  0  0  0  0  0
   12.5320   -2.8116    0.0000 C   0  0  0  0  0  0  0  0  0  0  0  0
   13.5356   -1.6969    0.0000 C   0  0  0  0  0  0  0  0  0  0  0  0
   15.0029   -2.0088    0.0000 C   0  0  0  0  0  0  0  0  0  0  0  0
   15.4664   -3.4354    0.0000 C   0  0  0  0  0  0  0  0  0  0  0  0
   14.4627   -4.5501    0.0000 C   0  0  0  0  0  0  0  0  0  0  0  0
    5.2500   -3.8971    0.0000 C   0  0  0  0  0  0  0  0  0  0  0  0
    3.7500   -3.8971    0.0000 C   0  0  0  0  0  0  0  0  0  0  0  0
    3.0000   -2.5981    0.0000 C   0  0  0  0  0  0  0  0  0  0  0  0
    1.5000   -2.5981    0.0000 N   0  0  0  0  0  0  0  0  0  0  0  0
    0.7500   -1.2990    0.0000 C   0  0  0  0  0  0  0  0  0  0  0  0
    1.5000    0.0000    0.0000 N   0  0  0  0  0  0  0  0  0  0  0  0
    0.7500    1.2990    0.0000 C   0  0  0  0  0  0  0  0  0  0  0  0
   -0.7500    1.2990    0.0000 N   0  0  0  0  0  0  0  0  0  0  0  0
   -1.5000    0.0000    0.0000 C   0  0  0  0  0  0  0  0  0  0  0  0
   -0.7500   -1.2990    0.0000 C   0  0  0  0  0  0  0  0  0  0  0  0
   -1.5000   -2.5981    0.0000 O   0  0  0  0  0  0  0  0  0  0  0  0
   -3.0000   -2.5981    0.0000 C   0  0  0  0  0  0  0  0  0  0  0  0
   -4.4095   -3.1111    0.0000 C   0  0  0  0  0  0  0  0  0  0  0  0
   -2.7395   -4.0753    0.0000 C   0  0  0  0  0  0  0  0  0  0  0  0
   -3.7500   -1.2990    0.0000 C   0  0  0  0  0  0  0  0  0  0  0  0
   -5.2500   -1.2990    0.0000 O   0  0  0  0  0  0  0  0  0  0  0  0
   -3.0000    0.0000    0.0000 N   0  0  0  0  0  0  0  0  0  0  0  0
  1  2  1  0
  2  3  2  0
  3  4  1  0
  4  5  1  0
  5  6  1  0
  6  7  2  0
  6  8  1  0
  8  9  1  0
  9 10  2  0
 10 11  1  0
 11 12  1  0
 12 13  1  0
 13 14  1  0
 11 15  2  0
 15 16  1  0
 16 17  1  0
 17 18  2  0
 18 19  1  0
 19 20  2  0
 20 21  1  0
 21 22  2  0
  4 23  2  0
 23 24  1  0
 24 25  2  0
 25 26  1  0
 26 27  1  0
 27 28  2  0
 28 29  1  0
 29 30  2  0
 30 31  1  0
 31 32  2  0
 32 33  1  0
 33 34  1  0
 34 35  1  0
 34 36  1  0
 34 37  1  0
 37 38  2  0
 37 39  1  0
 25  2  1  0
 32 27  1  0
 16  9  1  0
 22 17  1  0
 39 31  1  0
 14 12  1  0
M  END
>  <Compound_ID>  (523) 
CHEMBL5076895

>  <Molecule Name>  (523) 
nan

>  <Molecular Weight>  (523) 
524.59

>  <AlogP>  (523) 
5.35

>  <Smiles>  (523) 
Cc1cc(NC(=O)Nc2cc(C3CC3)nn2-c2ccccc2)ccc1Nc1ncnc2c1OC(C)(C)C(=O)N2

>  <Standard Type>  (523) 
IC50

>  <Standard Relation>  (523) 
'='

>  <Standard Units>  (523) 
nM

>  <Standard Value>  (523) 
23.0

>  <Assay ChEMBL ID>  (523) 
CHEMBL5045112

>  <Assay Description>  (523) 
Inhibition of wild type TrkA (unknown origin) using poly(Glu: Tyr) as substrate preincubated for 15 mins followed by substrate addition and further incubated for 30 mins in presence of [gamma-33P]ATP by scintillation counting method

>  <BAO Format ID>  (523) 
BAO_0000357

>  <BAO Label>  (523) 
single protein format

>  <Assay Organism>  (523) 
Homo sapiens

>  <Target ChEMBL ID>  (523) 
CHEMBL2815

>  <Target Name>  (523) 
Nerve growth factor receptor Trk-A

>  <Target Organism>  (523) 
Homo sapiens

>  <Target Type>  (523) 
SINGLE PROTEIN

>  <Document ChEMBL ID>  (523) 
CHEMBL5042533

>  <Source Description>  (523) 
Scientific Literature

>  <Document Journal>  (523) 
J Med Chem

>  <Document Year>  (523) 
2022.0

>  <Active>  (523) 
1.0

>  <bits>  (523) 
<rdkit.DataStructs.cDataStructs.ExplicitBitVect object at 0x00000159F5473F40>

>  <Group>  (523) 
G2

$$$$

     RDKit          2D

 30 34  0  0  0  0  0  0  0  0999 V2000
    0.0082   -5.1819    0.0000 C   0  0  0  0  0  0  0  0  0  0  0  0
    0.8899   -3.9684    0.0000 C   0  0  0  0  0  0  0  0  0  0  0  0
   -0.4091   -3.2184    0.0000 C   0  0  0  0  0  0  0  0  0  0  0  0
    2.0046   -4.9721    0.0000 C   0  0  0  0  0  0  0  0  0  0  0  0
    3.3037   -4.2221    0.0000 C   0  0  0  0  0  0  0  0  0  0  0  0
    2.9918   -2.7549    0.0000 C   0  0  0  0  0  0  0  0  0  0  0  0
    3.9955   -1.6402    0.0000 C   0  0  0  0  0  0  0  0  0  0  0  0
    3.5320   -0.2136    0.0000 C   0  0  0  0  0  0  0  0  0  0  0  0
    4.5356    0.9012    0.0000 C   0  0  0  0  0  0  0  0  0  0  0  0
    4.0721    2.3277    0.0000 F   0  0  0  0  0  0  0  0  0  0  0  0
    6.0029    0.5893    0.0000 C   0  0  0  0  0  0  0  0  0  0  0  0
    6.4664   -0.8373    0.0000 C   0  0  0  0  0  0  0  0  0  0  0  0
    5.4627   -1.9520    0.0000 C   0  0  0  0  0  0  0  0  0  0  0  0
    5.9262   -3.3786    0.0000 F   0  0  0  0  0  0  0  0  0  0  0  0
    1.5000   -2.5981    0.0000 N   0  0  0  0  0  0  0  0  0  0  0  0
    0.7500   -1.2990    0.0000 C   0  0  0  0  0  0  0  0  0  0  0  0
    1.5000    0.0000    0.0000 C   0  0  0  0  0  0  0  0  0  0  0  0
    0.7500    1.2990    0.0000 C   0  0  0  0  0  0  0  0  0  0  0  0
   -0.7500    1.2990    0.0000 N   0  0  0  0  0  0  0  0  0  0  0  0
   -1.7537    2.4138    0.0000 N   0  0  0  0  0  0  0  0  0  0  0  0
   -3.1240    1.8037    0.0000 C   0  0  0  0  0  0  0  0  0  0  0  0
   -2.9672    0.3119    0.0000 C   0  0  0  0  0  0  0  0  0  0  0  0
   -4.0819   -0.6918    0.0000 C   0  0  0  0  0  0  0  0  0  0  0  0
   -3.7701   -2.1590    0.0000 O   0  0  0  0  0  0  0  0  0  0  0  0
   -5.5085   -0.2283    0.0000 N   0  0  0  0  0  0  0  0  0  0  0  0
   -6.6232   -1.2320    0.0000 C   0  0  0  0  0  0  0  0  0  0  0  0
   -7.0868   -2.6586    0.0000 C   0  0  0  0  0  0  0  0  0  0  0  0
   -8.0905   -1.5439    0.0000 C   0  0  0  0  0  0  0  0  0  0  0  0
   -1.5000    0.0000    0.0000 C   0  0  0  0  0  0  0  0  0  0  0  0
   -0.7500   -1.2990    0.0000 N   0  0  0  0  0  0  0  0  0  0  0  0
  1  2  1  0
  2  3  1  0
  2  4  1  0
  4  5  1  0
  5  6  1  0
  6  7  1  1
  7  8  2  0
  8  9  1  0
  9 10  1  0
  9 11  2  0
 11 12  1  0
 12 13  2  0
 13 14  1  0
  6 15  1  0
 15 16  1  0
 16 17  1  0
 17 18  2  0
 18 19  1  0
 19 20  1  0
 20 21  2  0
 21 22  1  0
 22 23  1  0
 23 24  2  0
 23 25  1  0
 25 26  1  0
 26 27  1  0
 27 28  1  0
 22 29  2  0
 29 30  1  0
 15  2  1  0
 30 16  2  0
 13  7  1  0
 29 19  1  0
 28 26  1  0
M  END
>  <Compound_ID>  (524) 
CHEMBL3639748

>  <Molecule Name>  (524) 
nan

>  <Molecular Weight>  (524) 
411.46

>  <AlogP>  (524) 
4.02

>  <Smiles>  (524) 
CC1(C)CC[C@H](c2cc(F)ccc2F)N1c1ccn2ncc(C(=O)NC3CC3)c2n1

>  <Standard Type>  (524) 
IC50

>  <Standard Relation>  (524) 
'='

>  <Standard Units>  (524) 
nM

>  <Standard Value>  (524) 
6.6

>  <Assay ChEMBL ID>  (524) 
CHEMBL3887070

>  <Assay Description>  (524) 
ELISA Assay: An enzyme-linked immunosorbant assay (ELISA) was used to assess TrkA kinase activity in the presence of inhibitors. Immulon 4HBX 384-well microtiter plates (Thermo part #8755) were coated with a 0.025 mg/mL solution of poly (Glu, Ala, Tyr; 6:3:1; Sigma P3899). Various concentrations of test compound, 2.5 nM TrkA (Invitrogen Corp., histidine-tagged recombinant human TrkA, cytoplasmic domain), and 500 uM ATP were incubated for 25 minutes at ambient temperature in the coated plates while shaking The assay buffer consisted of 25 mM MOPS pH 7.5, 0.005% (v/v) Triton X-100 and 5 mM MgCl2. The reaction mixture was removed from the plate by washing with PBS containing 0.1% (v/v) Tween 20. The phosphorylated reaction product was detected using 0.2 ug/mL of a phosphotyrosine specific monoclonal antibody (clone PY20) conjugated to horseradish peroxidase in conjunction with the TMB Peroxidase Substrate System (KPL).

>  <BAO Format ID>  (524) 
BAO_0000357

>  <BAO Label>  (524) 
single protein format

>  <Assay Organism>  (524) 
None

>  <Target ChEMBL ID>  (524) 
CHEMBL2815

>  <Target Name>  (524) 
Nerve growth factor receptor Trk-A

>  <Target Organism>  (524) 
Homo sapiens

>  <Target Type>  (524) 
SINGLE PROTEIN

>  <Document ChEMBL ID>  (524) 
CHEMBL3638907

>  <Source Description>  (524) 
BindingDB Database

>  <Document Journal>  (524) 
nan

>  <Document Year>  (524) 
2014.0

>  <Active>  (524) 
1.0

>  <bits>  (524) 
<rdkit.DataStructs.cDataStructs.ExplicitBitVect object at 0x00000159F5472F80>

>  <Group>  (524) 
G2

$$$$

     RDKit          2D

 33 37  0  0  0  0  0  0  0  0999 V2000
   -2.9520   -4.6564    0.0000 C   0  0  0  0  0  0  0  0  0  0  0  0
   -2.6401   -3.1891    0.0000 C   0  0  0  0  0  0  0  0  0  0  0  0
   -3.7548   -2.1855    0.0000 C   0  0  0  0  0  0  0  0  0  0  0  0
   -1.2135   -2.7256    0.0000 N   0  0  0  0  0  0  0  0  0  0  0  0
   -0.0000   -3.6073    0.0000 C   0  0  0  0  0  0  0  0  0  0  0  0
    1.2135   -2.7256    0.0000 C   0  0  0  0  0  0  0  0  0  0  0  0
    2.6401   -3.1891    0.0000 C   0  0  0  0  0  0  0  0  0  0  0  0
    3.7548   -2.1855    0.0000 O   0  0  0  0  0  0  0  0  0  0  0  0
    2.9520   -4.6564    0.0000 C   0  0  0  0  0  0  0  0  0  0  0  0
    1.8373   -5.6601    0.0000 C   0  0  0  0  0  0  0  0  0  0  0  0
    2.1491   -7.1273    0.0000 N   0  0  0  0  0  0  0  0  0  0  0  0
    3.5757   -7.5908    0.0000 C   0  0  0  0  0  0  0  0  0  0  0  0
    4.6904   -6.5871    0.0000 C   0  0  0  0  0  0  0  0  0  0  0  0
    6.1170   -7.0506    0.0000 N   0  0  0  0  0  0  0  0  0  0  0  0
    6.4289   -8.5179    0.0000 C   0  0  0  0  0  0  0  0  0  0  0  0
    5.3142   -9.5216    0.0000 O   0  0  0  0  0  0  0  0  0  0  0  0
    7.8555   -8.9814    0.0000 C   0  0  0  0  0  0  0  0  0  0  0  0
    9.0690   -8.0997    0.0000 N   0  0  0  0  0  0  0  0  0  0  0  0
   10.2825   -8.9814    0.0000 N   0  0  0  0  0  0  0  0  0  0  0  0
    9.8190  -10.4080    0.0000 C   0  0  0  0  0  0  0  0  0  0  0  0
   10.5690  -11.7070    0.0000 C   0  0  0  0  0  0  0  0  0  0  0  0
    9.8190  -13.0061    0.0000 C   0  0  0  0  0  0  0  0  0  0  0  0
    8.3190  -13.0061    0.0000 C   0  0  0  0  0  0  0  0  0  0  0  0
    7.5690  -14.3051    0.0000 F   0  0  0  0  0  0  0  0  0  0  0  0
    7.5690  -11.7070    0.0000 C   0  0  0  0  0  0  0  0  0  0  0  0
    8.3190  -10.4080    0.0000 C   0  0  0  0  0  0  0  0  0  0  0  0
    4.3786   -5.1199    0.0000 C   0  0  0  0  0  0  0  0  0  0  0  0
    0.7500   -1.2990    0.0000 C   0  0  0  0  0  0  0  0  0  0  0  0
    1.5000    0.0000    0.0000 C   0  0  0  0  0  0  0  0  0  0  0  0
    0.7500    1.2990    0.0000 N   0  0  0  0  0  0  0  0  0  0  0  0
   -0.7500    1.2990    0.0000 C   0  0  0  0  0  0  0  0  0  0  0  0
   -1.5000    0.0000    0.0000 N   0  0  0  0  0  0  0  0  0  0  0  0
   -0.7500   -1.2990    0.0000 C   0  0  0  0  0  0  0  0  0  0  0  0
  1  2  1  0
  2  3  1  0
  2  4  1  0
  4  5  1  0
  5  6  2  0
  6  7  1  0
  7  8  2  0
  7  9  1  0
  9 10  2  0
 10 11  1  0
 11 12  2  0
 12 13  1  0
 13 14  1  0
 14 15  1  0
 15 16  2  0
 15 17  1  0
 17 18  2  0
 18 19  1  0
 19 20  1  0
 20 21  2  0
 21 22  1  0
 22 23  2  0
 23 24  1  0
 23 25  1  0
 25 26  2  0
 13 27  2  0
  6 28  1  0
 28 29  2  0
 29 30  1  0
 30 31  2  0
 31 32  1  0
 32 33  2  0
 33  4  1  0
 27  9  1  0
 33 28  1  0
 26 17  1  0
 26 20  1  0
M  END
>  <Compound_ID>  (525) 
CHEMBL3671392

>  <Molecule Name>  (525) 
nan

>  <Molecular Weight>  (525) 
443.44

>  <AlogP>  (525) 
3.91

>  <Smiles>  (525) 
CC(C)n1cc(C(=O)c2cncc(NC(=O)c3n[nH]c4ccc(F)cc34)c2)c2cncnc21

>  <Standard Type>  (525) 
IC50

>  <Standard Relation>  (525) 
'='

>  <Standard Units>  (525) 
nM

>  <Standard Value>  (525) 
12.6

>  <Assay ChEMBL ID>  (525) 
CHEMBL3887033

>  <Assay Description>  (525) 
Enzyme Assay: Isolated TRK Enzyme assays use the HTRF KinEASE-TK kit (Cisbio Cat# 62TK0PEJ) with recombinant His-tagged cytoplasmic domains of each TRK receptor sourced from Invitrogen (see table below). This activity-assay measures the phosphorylation of tyrosine residues within a substrate from the HTRF kit which has been validated by Cisbio for a variety of tyrosine kinases including the TRK receptors. Assay details: Target:TRKA; Invitrogen Cat# PV3144; Amino acids:aa 441-796; FAC enzyme:4nM; FAC ATP:40uM; Assay Reaction Time:35min.

>  <BAO Format ID>  (525) 
BAO_0000357

>  <BAO Label>  (525) 
single protein format

>  <Assay Organism>  (525) 
None

>  <Target ChEMBL ID>  (525) 
CHEMBL2815

>  <Target Name>  (525) 
Nerve growth factor receptor Trk-A

>  <Target Organism>  (525) 
Homo sapiens

>  <Target Type>  (525) 
SINGLE PROTEIN

>  <Document ChEMBL ID>  (525) 
CHEMBL3639348

>  <Source Description>  (525) 
BindingDB Database

>  <Document Journal>  (525) 
nan

>  <Document Year>  (525) 
2014.0

>  <Active>  (525) 
1.0

>  <bits>  (525) 
<rdkit.DataStructs.cDataStructs.ExplicitBitVect object at 0x00000159F5472B90>

>  <Group>  (525) 
G2

$$$$

     RDKit          2D

 33 36  0  0  0  0  0  0  0  0999 V2000
   -2.9520   -4.6564    0.0000 C   0  0  0  0  0  0  0  0  0  0  0  0
   -2.6401   -3.1891    0.0000 C   0  0  0  0  0  0  0  0  0  0  0  0
   -3.7548   -2.1855    0.0000 C   0  0  0  0  0  0  0  0  0  0  0  0
   -5.1814   -2.6490    0.0000 O   0  0  0  0  0  0  0  0  0  0  0  0
   -1.2135   -2.7256    0.0000 N   0  0  0  0  0  0  0  0  0  0  0  0
   -0.0000   -3.6073    0.0000 C   0  0  0  0  0  0  0  0  0  0  0  0
    1.2135   -2.7256    0.0000 C   0  0  0  0  0  0  0  0  0  0  0  0
    2.6401   -3.1891    0.0000 C   0  0  0  0  0  0  0  0  0  0  0  0
    3.7548   -2.1855    0.0000 O   0  0  0  0  0  0  0  0  0  0  0  0
    2.9520   -4.6564    0.0000 C   0  0  0  0  0  0  0  0  0  0  0  0
    1.8373   -5.6601    0.0000 C   0  0  0  0  0  0  0  0  0  0  0  0
    2.1491   -7.1273    0.0000 N   0  0  0  0  0  0  0  0  0  0  0  0
    3.5757   -7.5908    0.0000 C   0  0  0  0  0  0  0  0  0  0  0  0
    4.6904   -6.5871    0.0000 C   0  0  0  0  0  0  0  0  0  0  0  0
    6.1170   -7.0506    0.0000 N   0  0  0  0  0  0  0  0  0  0  0  0
    6.4289   -8.5179    0.0000 C   0  0  0  0  0  0  0  0  0  0  0  0
    5.3142   -9.5216    0.0000 O   0  0  0  0  0  0  0  0  0  0  0  0
    7.8555   -8.9814    0.0000 C   0  0  0  0  0  0  0  0  0  0  0  0
    8.1673  -10.4486    0.0000 C   0  0  0  0  0  0  0  0  0  0  0  0
    7.0526  -11.4523    0.0000 C   0  0  0  0  0  0  0  0  0  0  0  0
    7.3645  -12.9195    0.0000 C   0  0  0  0  0  0  0  0  0  0  0  0
    8.7911  -13.3831    0.0000 C   0  0  0  0  0  0  0  0  0  0  0  0
    9.1029  -14.8503    0.0000 F   0  0  0  0  0  0  0  0  0  0  0  0
    9.9058  -12.3794    0.0000 C   0  0  0  0  0  0  0  0  0  0  0  0
   11.3324  -12.8429    0.0000 F   0  0  0  0  0  0  0  0  0  0  0  0
    9.5939  -10.9121    0.0000 C   0  0  0  0  0  0  0  0  0  0  0  0
    4.3786   -5.1199    0.0000 C   0  0  0  0  0  0  0  0  0  0  0  0
    0.7500   -1.2990    0.0000 C   0  0  0  0  0  0  0  0  0  0  0  0
    1.5000    0.0000    0.0000 C   0  0  0  0  0  0  0  0  0  0  0  0
    0.7500    1.2990    0.0000 N   0  0  0  0  0  0  0  0  0  0  0  0
   -0.7500    1.2990    0.0000 C   0  0  0  0  0  0  0  0  0  0  0  0
   -1.5000    0.0000    0.0000 N   0  0  0  0  0  0  0  0  0  0  0  0
   -0.7500   -1.2990    0.0000 C   0  0  0  0  0  0  0  0  0  0  0  0
  2  1  1  1
  2  3  1  0
  3  4  1  0
  2  5  1  0
  5  6  1  0
  6  7  2  0
  7  8  1  0
  8  9  2  0
  8 10  1  0
 10 11  2  0
 11 12  1  0
 12 13  2  0
 13 14  1  0
 14 15  1  0
 15 16  1  0
 16 17  2  0
 16 18  1  0
 18 19  1  0
 19 20  2  0
 20 21  1  0
 21 22  2  0
 22 23  1  0
 22 24  1  0
 24 25  1  0
 24 26  2  0
 14 27  2  0
  7 28  1  0
 28 29  2  0
 29 30  1  0
 30 31  2  0
 31 32  1  0
 32 33  2  0
 33  5  1  0
 27 10  1  0
 33 28  1  0
 26 19  1  0
M  END
>  <Compound_ID>  (526) 
CHEMBL3671411

>  <Molecule Name>  (526) 
nan

>  <Molecular Weight>  (526) 
451.43

>  <AlogP>  (526) 
3.07

>  <Smiles>  (526) 
C[C@@H](CO)n1cc(C(=O)c2cncc(NC(=O)Cc3ccc(F)c(F)c3)c2)c2cncnc21

>  <Standard Type>  (526) 
IC50

>  <Standard Relation>  (526) 
'='

>  <Standard Units>  (526) 
nM

>  <Standard Value>  (526) 
51.2

>  <Assay ChEMBL ID>  (526) 
CHEMBL3887033

>  <Assay Description>  (526) 
Enzyme Assay: Isolated TRK Enzyme assays use the HTRF KinEASE-TK kit (Cisbio Cat# 62TK0PEJ) with recombinant His-tagged cytoplasmic domains of each TRK receptor sourced from Invitrogen (see table below). This activity-assay measures the phosphorylation of tyrosine residues within a substrate from the HTRF kit which has been validated by Cisbio for a variety of tyrosine kinases including the TRK receptors. Assay details: Target:TRKA; Invitrogen Cat# PV3144; Amino acids:aa 441-796; FAC enzyme:4nM; FAC ATP:40uM; Assay Reaction Time:35min.

>  <BAO Format ID>  (526) 
BAO_0000357

>  <BAO Label>  (526) 
single protein format

>  <Assay Organism>  (526) 
None

>  <Target ChEMBL ID>  (526) 
CHEMBL2815

>  <Target Name>  (526) 
Nerve growth factor receptor Trk-A

>  <Target Organism>  (526) 
Homo sapiens

>  <Target Type>  (526) 
SINGLE PROTEIN

>  <Document ChEMBL ID>  (526) 
CHEMBL3639348

>  <Source Description>  (526) 
BindingDB Database

>  <Document Journal>  (526) 
nan

>  <Document Year>  (526) 
2014.0

>  <Active>  (526) 
1.0

>  <bits>  (526) 
<rdkit.DataStructs.cDataStructs.ExplicitBitVect object at 0x00000159F5472A40>

>  <Group>  (526) 
G2

$$$$

     RDKit          2D

 32 35  0  0  0  0  0  0  0  0999 V2000
   -2.9520   -4.6564    0.0000 C   0  0  0  0  0  0  0  0  0  0  0  0
   -2.6401   -3.1891    0.0000 C   0  0  0  0  0  0  0  0  0  0  0  0
   -3.7548   -2.1855    0.0000 C   0  0  0  0  0  0  0  0  0  0  0  0
   -1.2135   -2.7256    0.0000 N   0  0  0  0  0  0  0  0  0  0  0  0
   -0.0000   -3.6073    0.0000 C   0  0  0  0  0  0  0  0  0  0  0  0
    1.2135   -2.7256    0.0000 C   0  0  0  0  0  0  0  0  0  0  0  0
    2.6401   -3.1891    0.0000 C   0  0  0  0  0  0  0  0  0  0  0  0
    3.7548   -2.1855    0.0000 O   0  0  0  0  0  0  0  0  0  0  0  0
    2.9520   -4.6564    0.0000 C   0  0  0  0  0  0  0  0  0  0  0  0
    1.8373   -5.6601    0.0000 C   0  0  0  0  0  0  0  0  0  0  0  0
    2.1491   -7.1273    0.0000 N   0  0  0  0  0  0  0  0  0  0  0  0
    3.5757   -7.5908    0.0000 C   0  0  0  0  0  0  0  0  0  0  0  0
    3.8876   -9.0580    0.0000 O   0  0  0  0  0  0  0  0  0  0  0  0
    4.6904   -6.5871    0.0000 C   0  0  0  0  0  0  0  0  0  0  0  0
    6.1170   -7.0506    0.0000 N   0  0  0  0  0  0  0  0  0  0  0  0
    7.2317   -6.0469    0.0000 C   0  0  0  0  0  0  0  0  0  0  0  0
    6.9199   -4.5797    0.0000 O   0  0  0  0  0  0  0  0  0  0  0  0
    8.6583   -6.5105    0.0000 C   0  0  0  0  0  0  0  0  0  0  0  0
    9.7730   -5.5068    0.0000 C   0  0  0  0  0  0  0  0  0  0  0  0
   11.1996   -5.9703    0.0000 C   0  0  0  0  0  0  0  0  0  0  0  0
   12.3143   -4.9666    0.0000 C   0  0  0  0  0  0  0  0  0  0  0  0
   12.0025   -3.4994    0.0000 C   0  0  0  0  0  0  0  0  0  0  0  0
   13.1172   -2.4957    0.0000 Cl  0  0  0  0  0  0  0  0  0  0  0  0
   10.5759   -3.0359    0.0000 C   0  0  0  0  0  0  0  0  0  0  0  0
    9.4612   -4.0396    0.0000 C   0  0  0  0  0  0  0  0  0  0  0  0
    4.3786   -5.1199    0.0000 C   0  0  0  0  0  0  0  0  0  0  0  0
    0.7500   -1.2990    0.0000 C   0  0  0  0  0  0  0  0  0  0  0  0
    1.5000    0.0000    0.0000 C   0  0  0  0  0  0  0  0  0  0  0  0
    0.7500    1.2990    0.0000 N   0  0  0  0  0  0  0  0  0  0  0  0
   -0.7500    1.2990    0.0000 C   0  0  0  0  0  0  0  0  0  0  0  0
   -1.5000    0.0000    0.0000 N   0  0  0  0  0  0  0  0  0  0  0  0
   -0.7500   -1.2990    0.0000 C   0  0  0  0  0  0  0  0  0  0  0  0
  1  2  1  0
  2  3  1  0
  2  4  1  0
  4  5  1  0
  5  6  2  0
  6  7  1  0
  7  8  2  0
  7  9  1  0
  9 10  2  0
 10 11  1  0
 11 12  1  0
 12 13  2  0
 12 14  1  0
 14 15  1  0
 15 16  1  0
 16 17  2  0
 16 18  1  0
 18 19  1  0
 19 20  2  0
 20 21  1  0
 21 22  2  0
 22 23  1  0
 22 24  1  0
 24 25  2  0
 14 26  2  0
  6 27  1  0
 27 28  2  0
 28 29  1  0
 29 30  2  0
 30 31  1  0
 31 32  2  0
 32  4  1  0
 26  9  1  0
 32 27  1  0
 25 19  1  0
M  END
>  <Compound_ID>  (527) 
CHEMBL3671455

>  <Molecule Name>  (527) 
nan

>  <Molecular Weight>  (527) 
449.9

>  <AlogP>  (527) 
3.77

>  <Smiles>  (527) 
CC(C)n1cc(C(=O)c2c[nH]c(=O)c(NC(=O)Cc3ccc(Cl)cc3)c2)c2cncnc21

>  <Standard Type>  (527) 
IC50

>  <Standard Relation>  (527) 
'='

>  <Standard Units>  (527) 
nM

>  <Standard Value>  (527) 
31.3

>  <Assay ChEMBL ID>  (527) 
CHEMBL3887033

>  <Assay Description>  (527) 
Enzyme Assay: Isolated TRK Enzyme assays use the HTRF KinEASE-TK kit (Cisbio Cat# 62TK0PEJ) with recombinant His-tagged cytoplasmic domains of each TRK receptor sourced from Invitrogen (see table below). This activity-assay measures the phosphorylation of tyrosine residues within a substrate from the HTRF kit which has been validated by Cisbio for a variety of tyrosine kinases including the TRK receptors. Assay details: Target:TRKA; Invitrogen Cat# PV3144; Amino acids:aa 441-796; FAC enzyme:4nM; FAC ATP:40uM; Assay Reaction Time:35min.

>  <BAO Format ID>  (527) 
BAO_0000357

>  <BAO Label>  (527) 
single protein format

>  <Assay Organism>  (527) 
None

>  <Target ChEMBL ID>  (527) 
CHEMBL2815

>  <Target Name>  (527) 
Nerve growth factor receptor Trk-A

>  <Target Organism>  (527) 
Homo sapiens

>  <Target Type>  (527) 
SINGLE PROTEIN

>  <Document ChEMBL ID>  (527) 
CHEMBL3639348

>  <Source Description>  (527) 
BindingDB Database

>  <Document Journal>  (527) 
nan

>  <Document Year>  (527) 
2014.0

>  <Active>  (527) 
1.0

>  <bits>  (527) 
<rdkit.DataStructs.cDataStructs.ExplicitBitVect object at 0x00000159F5471850>

>  <Group>  (527) 
G2

$$$$

     RDKit          2D

 30 33  0  0  0  0  0  0  0  0999 V2000
   -2.9520   -4.6564    0.0000 C   0  0  0  0  0  0  0  0  0  0  0  0
   -2.6401   -3.1891    0.0000 C   0  0  0  0  0  0  0  0  0  0  0  0
   -3.7548   -2.1855    0.0000 C   0  0  0  0  0  0  0  0  0  0  0  0
   -1.2135   -2.7256    0.0000 N   0  0  0  0  0  0  0  0  0  0  0  0
   -0.0000   -3.6073    0.0000 C   0  0  0  0  0  0  0  0  0  0  0  0
    1.2135   -2.7256    0.0000 C   0  0  0  0  0  0  0  0  0  0  0  0
    2.6401   -3.1891    0.0000 C   0  0  0  0  0  0  0  0  0  0  0  0
    3.7548   -2.1855    0.0000 O   0  0  0  0  0  0  0  0  0  0  0  0
    2.9520   -4.6564    0.0000 C   0  0  0  0  0  0  0  0  0  0  0  0
    1.8373   -5.6601    0.0000 C   0  0  0  0  0  0  0  0  0  0  0  0
    2.1491   -7.1273    0.0000 N   0  0  0  0  0  0  0  0  0  0  0  0
    3.5757   -7.5908    0.0000 C   0  0  0  0  0  0  0  0  0  0  0  0
    4.6904   -6.5871    0.0000 C   0  0  0  0  0  0  0  0  0  0  0  0
    6.1170   -7.0506    0.0000 N   0  0  0  0  0  0  0  0  0  0  0  0
    6.4289   -8.5179    0.0000 C   0  0  0  0  0  0  0  0  0  0  0  0
    5.3142   -9.5216    0.0000 O   0  0  0  0  0  0  0  0  0  0  0  0
    7.8555   -8.9814    0.0000 C   0  0  0  0  0  0  0  0  0  0  0  0
    8.1673  -10.4486    0.0000 C   0  0  0  0  0  0  0  0  0  0  0  0
    9.5939  -10.9121    0.0000 C   0  0  0  0  0  0  0  0  0  0  0  0
   10.7086   -9.9084    0.0000 C   0  0  0  0  0  0  0  0  0  0  0  0
   10.3968   -8.4412    0.0000 C   0  0  0  0  0  0  0  0  0  0  0  0
   11.5115   -7.4375    0.0000 Cl  0  0  0  0  0  0  0  0  0  0  0  0
    8.9702   -7.9777    0.0000 C   0  0  0  0  0  0  0  0  0  0  0  0
    4.3786   -5.1199    0.0000 C   0  0  0  0  0  0  0  0  0  0  0  0
    0.7500   -1.2990    0.0000 C   0  0  0  0  0  0  0  0  0  0  0  0
    1.5000    0.0000    0.0000 C   0  0  0  0  0  0  0  0  0  0  0  0
    0.7500    1.2990    0.0000 N   0  0  0  0  0  0  0  0  0  0  0  0
   -0.7500    1.2990    0.0000 C   0  0  0  0  0  0  0  0  0  0  0  0
   -1.5000    0.0000    0.0000 N   0  0  0  0  0  0  0  0  0  0  0  0
   -0.7500   -1.2990    0.0000 C   0  0  0  0  0  0  0  0  0  0  0  0
  1  2  1  0
  2  3  1  0
  2  4  1  0
  4  5  1  0
  5  6  2  0
  6  7  1  0
  7  8  2  0
  7  9  1  0
  9 10  2  0
 10 11  1  0
 11 12  2  0
 12 13  1  0
 13 14  1  0
 14 15  1  0
 15 16  2  0
 15 17  1  0
 17 18  2  0
 18 19  1  0
 19 20  2  0
 20 21  1  0
 21 22  1  0
 21 23  2  0
 13 24  2  0
  6 25  1  0
 25 26  2  0
 26 27  1  0
 27 28  2  0
 28 29  1  0
 29 30  2  0
 30  4  1  0
 24  9  1  0
 30 25  1  0
 23 17  1  0
M  END
>  <Compound_ID>  (528) 
CHEMBL3666332

>  <Molecule Name>  (528) 
nan

>  <Molecular Weight>  (528) 
419.87

>  <AlogP>  (528) 
4.54

>  <Smiles>  (528) 
CC(C)n1cc(C(=O)c2cncc(NC(=O)c3cccc(Cl)c3)c2)c2cncnc21

>  <Standard Type>  (528) 
IC50

>  <Standard Relation>  (528) 
'='

>  <Standard Units>  (528) 
nM

>  <Standard Value>  (528) 
53.9

>  <Assay ChEMBL ID>  (528) 
CHEMBL3887033

>  <Assay Description>  (528) 
Enzyme Assay: Isolated TRK Enzyme assays use the HTRF KinEASE-TK kit (Cisbio Cat# 62TK0PEJ) with recombinant His-tagged cytoplasmic domains of each TRK receptor sourced from Invitrogen (see table below). This activity-assay measures the phosphorylation of tyrosine residues within a substrate from the HTRF kit which has been validated by Cisbio for a variety of tyrosine kinases including the TRK receptors. Assay details: Target:TRKA; Invitrogen Cat# PV3144; Amino acids:aa 441-796; FAC enzyme:4nM; FAC ATP:40uM; Assay Reaction Time:35min.

>  <BAO Format ID>  (528) 
BAO_0000357

>  <BAO Label>  (528) 
single protein format

>  <Assay Organism>  (528) 
None

>  <Target ChEMBL ID>  (528) 
CHEMBL2815

>  <Target Name>  (528) 
Nerve growth factor receptor Trk-A

>  <Target Organism>  (528) 
Homo sapiens

>  <Target Type>  (528) 
SINGLE PROTEIN

>  <Document ChEMBL ID>  (528) 
CHEMBL3639348

>  <Source Description>  (528) 
BindingDB Database

>  <Document Journal>  (528) 
nan

>  <Document Year>  (528) 
2014.0

>  <Active>  (528) 
1.0

>  <bits>  (528) 
<rdkit.DataStructs.cDataStructs.ExplicitBitVect object at 0x00000159F5471000>

>  <Group>  (528) 
G2

$$$$

     RDKit          2D

 36 40  0  0  0  0  0  0  0  0999 V2000
   -2.9520   -4.6564    0.0000 C   0  0  0  0  0  0  0  0  0  0  0  0
   -2.6401   -3.1891    0.0000 C   0  0  0  0  0  0  0  0  0  0  0  0
   -3.7548   -2.1855    0.0000 C   0  0  0  0  0  0  0  0  0  0  0  0
   -1.2135   -2.7256    0.0000 N   0  0  0  0  0  0  0  0  0  0  0  0
   -0.0000   -3.6073    0.0000 C   0  0  0  0  0  0  0  0  0  0  0  0
    1.2135   -2.7256    0.0000 C   0  0  0  0  0  0  0  0  0  0  0  0
    2.6401   -3.1891    0.0000 C   0  0  0  0  0  0  0  0  0  0  0  0
    3.7548   -2.1855    0.0000 O   0  0  0  0  0  0  0  0  0  0  0  0
    2.9520   -4.6564    0.0000 C   0  0  0  0  0  0  0  0  0  0  0  0
    1.8373   -5.6601    0.0000 C   0  0  0  0  0  0  0  0  0  0  0  0
    2.1491   -7.1273    0.0000 N   0  0  0  0  0  0  0  0  0  0  0  0
    3.5757   -7.5908    0.0000 C   0  0  0  0  0  0  0  0  0  0  0  0
    4.6904   -6.5871    0.0000 C   0  0  0  0  0  0  0  0  0  0  0  0
    6.1170   -7.0506    0.0000 N   0  0  0  0  0  0  0  0  0  0  0  0
    6.4289   -8.5179    0.0000 C   0  0  0  0  0  0  0  0  0  0  0  0
    5.3142   -9.5216    0.0000 O   0  0  0  0  0  0  0  0  0  0  0  0
    7.8555   -8.9814    0.0000 C   0  0  0  0  0  0  0  0  0  0  0  0
    8.1673  -10.4486    0.0000 C   0  0  0  0  0  0  0  0  0  0  0  0
    7.1636  -11.5633    0.0000 C   0  0  0  0  0  0  0  0  0  0  0  0
    7.9136  -12.8624    0.0000 N   0  0  0  0  0  0  0  0  0  0  0  0
    7.3035  -14.2327    0.0000 C   0  0  0  0  0  0  0  0  0  0  0  0
    6.0900  -15.1144    0.0000 C   0  0  0  0  0  0  0  0  0  0  0  0
    7.4603  -15.7245    0.0000 C   0  0  0  0  0  0  0  0  0  0  0  0
    9.3809  -12.5505    0.0000 N   0  0  0  0  0  0  0  0  0  0  0  0
    9.5377  -11.0587    0.0000 C   0  0  0  0  0  0  0  0  0  0  0  0
   10.8367  -10.3087    0.0000 C   0  0  0  0  0  0  0  0  0  0  0  0
   12.1357   -9.5587    0.0000 F   0  0  0  0  0  0  0  0  0  0  0  0
   10.0867   -9.0097    0.0000 F   0  0  0  0  0  0  0  0  0  0  0  0
   11.5867  -11.6078    0.0000 F   0  0  0  0  0  0  0  0  0  0  0  0
    4.3786   -5.1199    0.0000 C   0  0  0  0  0  0  0  0  0  0  0  0
    0.7500   -1.2990    0.0000 C   0  0  0  0  0  0  0  0  0  0  0  0
    1.5000    0.0000    0.0000 C   0  0  0  0  0  0  0  0  0  0  0  0
    0.7500    1.2990    0.0000 N   0  0  0  0  0  0  0  0  0  0  0  0
   -0.7500    1.2990    0.0000 C   0  0  0  0  0  0  0  0  0  0  0  0
   -1.5000    0.0000    0.0000 N   0  0  0  0  0  0  0  0  0  0  0  0
   -0.7500   -1.2990    0.0000 C   0  0  0  0  0  0  0  0  0  0  0  0
  1  2  1  0
  2  3  1  0
  2  4  1  0
  4  5  1  0
  5  6  2  0
  6  7  1  0
  7  8  2  0
  7  9  1  0
  9 10  2  0
 10 11  1  0
 11 12  2  0
 12 13  1  0
 13 14  1  0
 14 15  1  0
 15 16  2  0
 15 17  1  0
 17 18  1  0
 18 19  2  0
 19 20  1  0
 20 21  1  0
 21 22  1  0
 22 23  1  0
 20 24  1  0
 24 25  2  0
 25 26  1  0
 26 27  1  0
 26 28  1  0
 26 29  1  0
 13 30  2  0
  6 31  1  0
 31 32  2  0
 32 33  1  0
 33 34  2  0
 34 35  1  0
 35 36  2  0
 36  4  1  0
 30  9  1  0
 36 31  1  0
 25 18  1  0
 23 21  1  0
M  END
>  <Compound_ID>  (529) 
CHEMBL3666340

>  <Molecule Name>  (529) 
nan

>  <Molecular Weight>  (529) 
497.48

>  <AlogP>  (529) 
4.37

>  <Smiles>  (529) 
CC(C)n1cc(C(=O)c2cncc(NC(=O)Cc3cn(C4CC4)nc3C(F)(F)F)c2)c2cncnc21

>  <Standard Type>  (529) 
IC50

>  <Standard Relation>  (529) 
'='

>  <Standard Units>  (529) 
nM

>  <Standard Value>  (529) 
62.6

>  <Assay ChEMBL ID>  (529) 
CHEMBL3887033

>  <Assay Description>  (529) 
Enzyme Assay: Isolated TRK Enzyme assays use the HTRF KinEASE-TK kit (Cisbio Cat# 62TK0PEJ) with recombinant His-tagged cytoplasmic domains of each TRK receptor sourced from Invitrogen (see table below). This activity-assay measures the phosphorylation of tyrosine residues within a substrate from the HTRF kit which has been validated by Cisbio for a variety of tyrosine kinases including the TRK receptors. Assay details: Target:TRKA; Invitrogen Cat# PV3144; Amino acids:aa 441-796; FAC enzyme:4nM; FAC ATP:40uM; Assay Reaction Time:35min.

>  <BAO Format ID>  (529) 
BAO_0000357

>  <BAO Label>  (529) 
single protein format

>  <Assay Organism>  (529) 
None

>  <Target ChEMBL ID>  (529) 
CHEMBL2815

>  <Target Name>  (529) 
Nerve growth factor receptor Trk-A

>  <Target Organism>  (529) 
Homo sapiens

>  <Target Type>  (529) 
SINGLE PROTEIN

>  <Document ChEMBL ID>  (529) 
CHEMBL3639348

>  <Source Description>  (529) 
BindingDB Database

>  <Document Journal>  (529) 
nan

>  <Document Year>  (529) 
2014.0

>  <Active>  (529) 
1.0

>  <bits>  (529) 
<rdkit.DataStructs.cDataStructs.ExplicitBitVect object at 0x00000159F5470900>

>  <Group>  (529) 
G2

$$$$

     RDKit          2D

 30 34  0  0  0  0  0  0  0  0999 V2000
    7.9336   -1.1492    0.0000 C   0  0  0  0  0  0  0  0  0  0  0  0
    6.4664   -0.8373    0.0000 N   0  0  0  0  0  0  0  0  0  0  0  0
    6.0029    0.5893    0.0000 C   0  0  0  0  0  0  0  0  0  0  0  0
    4.5356    0.9012    0.0000 C   0  0  0  0  0  0  0  0  0  0  0  0
    4.0721    2.3277    0.0000 F   0  0  0  0  0  0  0  0  0  0  0  0
    3.5320   -0.2136    0.0000 C   0  0  0  0  0  0  0  0  0  0  0  0
    3.9955   -1.6402    0.0000 C   0  0  0  0  0  0  0  0  0  0  0  0
    2.9918   -2.7549    0.0000 C   0  0  0  0  0  0  0  0  0  0  0  0
    3.3037   -4.2221    0.0000 C   0  0  0  0  0  0  0  0  0  0  0  0
    2.0046   -4.9721    0.0000 C   0  0  0  0  0  0  0  0  0  0  0  0
    0.8899   -3.9684    0.0000 C   0  0  0  0  0  0  0  0  0  0  0  0
    1.5000   -2.5981    0.0000 N   0  0  0  0  0  0  0  0  0  0  0  0
    0.7500   -1.2990    0.0000 C   0  0  0  0  0  0  0  0  0  0  0  0
    1.5000    0.0000    0.0000 C   0  0  0  0  0  0  0  0  0  0  0  0
    0.7500    1.2990    0.0000 C   0  0  0  0  0  0  0  0  0  0  0  0
   -0.7500    1.2990    0.0000 N   0  0  0  0  0  0  0  0  0  0  0  0
   -1.7537    2.4138    0.0000 N   0  0  0  0  0  0  0  0  0  0  0  0
   -3.1240    1.8037    0.0000 C   0  0  0  0  0  0  0  0  0  0  0  0
   -2.9672    0.3119    0.0000 C   0  0  0  0  0  0  0  0  0  0  0  0
   -4.0819   -0.6918    0.0000 C   0  0  0  0  0  0  0  0  0  0  0  0
   -3.7701   -2.1590    0.0000 O   0  0  0  0  0  0  0  0  0  0  0  0
   -5.5085   -0.2283    0.0000 N   0  0  0  0  0  0  0  0  0  0  0  0
   -6.6232   -1.2320    0.0000 C   0  0  0  0  0  0  0  0  0  0  0  0
   -8.1212   -1.1535    0.0000 C   0  0  0  0  0  0  0  0  0  0  0  0
   -8.1997   -2.6514    0.0000 C   0  0  0  0  0  0  0  0  0  0  0  0
   -6.7017   -2.7299    0.0000 C   0  0  0  0  0  0  0  0  0  0  0  0
   -1.5000    0.0000    0.0000 C   0  0  0  0  0  0  0  0  0  0  0  0
   -0.7500   -1.2990    0.0000 N   0  0  0  0  0  0  0  0  0  0  0  0
    5.4627   -1.9520    0.0000 C   0  0  0  0  0  0  0  0  0  0  0  0
    5.9262   -3.3786    0.0000 O   0  0  0  0  0  0  0  0  0  0  0  0
  1  2  1  0
  2  3  1  0
  3  4  2  0
  4  5  1  0
  4  6  1  0
  6  7  2  0
  8  7  1  1
  8  9  1  0
  9 10  1  0
 10 11  1  0
 11 12  1  0
 12 13  1  0
 13 14  1  0
 14 15  2  0
 15 16  1  0
 16 17  1  0
 17 18  2  0
 18 19  1  0
 19 20  1  0
 20 21  2  0
 20 22  1  0
 22 23  1  0
 23 24  1  0
 24 25  1  0
 25 26  1  0
 19 27  2  0
 27 28  1  0
  7 29  1  0
 29 30  2  0
 29  2  1  0
 12  8  1  0
 28 13  2  0
 27 16  1  0
 26 23  1  0
M  END
>  <Compound_ID>  (530) 
CHEMBL3676092

>  <Molecule Name>  (530) 
nan

>  <Molecular Weight>  (530) 
410.45

>  <AlogP>  (530) 
2.19

>  <Smiles>  (530) 
Cn1cc(F)cc([C@H]2CCCN2c2ccn3ncc(C(=O)NC4CCC4)c3n2)c1=O

>  <Standard Type>  (530) 
IC50

>  <Standard Relation>  (530) 
'='

>  <Standard Units>  (530) 
nM

>  <Standard Value>  (530) 
3.0

>  <Assay ChEMBL ID>  (530) 
CHEMBL3887070

>  <Assay Description>  (530) 
ELISA Assay: An enzyme-linked immunosorbant assay (ELISA) was used to assess TrkA kinase activity in the presence of inhibitors. Immulon 4HBX 384-well microtiter plates (Thermo part #8755) were coated with a 0.025 mg/mL solution of poly (Glu, Ala, Tyr; 6:3:1; Sigma P3899). Various concentrations of test compound, 2.5 nM TrkA (Invitrogen Corp., histidine-tagged recombinant human TrkA, cytoplasmic domain), and 500 uM ATP were incubated for 25 minutes at ambient temperature in the coated plates while shaking The assay buffer consisted of 25 mM MOPS pH 7.5, 0.005% (v/v) Triton X-100 and 5 mM MgCl2. The reaction mixture was removed from the plate by washing with PBS containing 0.1% (v/v) Tween 20. The phosphorylated reaction product was detected using 0.2 ug/mL of a phosphotyrosine specific monoclonal antibody (clone PY20) conjugated to horseradish peroxidase in conjunction with the TMB Peroxidase Substrate System (KPL).

>  <BAO Format ID>  (530) 
BAO_0000357

>  <BAO Label>  (530) 
single protein format

>  <Assay Organism>  (530) 
None

>  <Target ChEMBL ID>  (530) 
CHEMBL2815

>  <Target Name>  (530) 
Nerve growth factor receptor Trk-A

>  <Target Organism>  (530) 
Homo sapiens

>  <Target Type>  (530) 
SINGLE PROTEIN

>  <Document ChEMBL ID>  (530) 
CHEMBL3638907

>  <Source Description>  (530) 
BindingDB Database

>  <Document Journal>  (530) 
nan

>  <Document Year>  (530) 
2014.0

>  <Active>  (530) 
1.0

>  <bits>  (530) 
<rdkit.DataStructs.cDataStructs.ExplicitBitVect object at 0x00000159F5473DF0>

>  <Group>  (530) 
G2

$$$$

     RDKit          2D

 31 34  0  0  0  0  0  0  0  0999 V2000
  -12.1352  -10.3720    0.0000 C   0  0  0  0  0  0  0  0  0  0  0  0
  -10.7086   -9.9084    0.0000 O   0  0  0  0  0  0  0  0  0  0  0  0
  -10.3968   -8.4412    0.0000 C   0  0  0  0  0  0  0  0  0  0  0  0
  -11.5115   -7.4375    0.0000 C   0  0  0  0  0  0  0  0  0  0  0  0
  -11.1996   -5.9703    0.0000 C   0  0  0  0  0  0  0  0  0  0  0  0
   -9.7730   -5.5068    0.0000 N   0  0  0  0  0  0  0  0  0  0  0  0
   -8.6583   -6.5105    0.0000 C   0  0  0  0  0  0  0  0  0  0  0  0
   -7.2317   -6.0469    0.0000 C   0  0  0  0  0  0  0  0  0  0  0  0
   -6.9199   -4.5797    0.0000 O   0  0  0  0  0  0  0  0  0  0  0  0
   -6.1170   -7.0506    0.0000 N   0  0  0  0  0  0  0  0  0  0  0  0
   -4.6904   -6.5871    0.0000 C   0  0  0  0  0  0  0  0  0  0  0  0
   -3.5757   -7.5908    0.0000 C   0  0  0  0  0  0  0  0  0  0  0  0
   -2.1491   -7.1273    0.0000 N   0  0  0  0  0  0  0  0  0  0  0  0
   -1.8373   -5.6601    0.0000 C   0  0  0  0  0  0  0  0  0  0  0  0
   -2.9520   -4.6564    0.0000 C   0  0  0  0  0  0  0  0  0  0  0  0
   -2.6401   -3.1891    0.0000 C   0  0  0  0  0  0  0  0  0  0  0  0
   -3.7548   -2.1855    0.0000 O   0  0  0  0  0  0  0  0  0  0  0  0
   -1.2135   -2.7256    0.0000 C   0  0  0  0  0  0  0  0  0  0  0  0
   -0.0000   -3.6073    0.0000 C   0  0  0  0  0  0  0  0  0  0  0  0
    1.2135   -2.7256    0.0000 N   0  0  0  0  0  0  0  0  0  0  0  0
    2.6401   -3.1891    0.0000 C   0  0  0  0  0  0  0  0  0  0  0  0
    2.9520   -4.6564    0.0000 C   0  0  0  0  0  0  0  0  0  0  0  0
    3.7548   -2.1855    0.0000 C   0  0  0  0  0  0  0  0  0  0  0  0
    0.7500   -1.2990    0.0000 C   0  0  0  0  0  0  0  0  0  0  0  0
    1.5000    0.0000    0.0000 N   0  0  0  0  0  0  0  0  0  0  0  0
    0.7500    1.2990    0.0000 C   0  0  0  0  0  0  0  0  0  0  0  0
   -0.7500    1.2990    0.0000 N   0  0  0  0  0  0  0  0  0  0  0  0
   -1.5000    0.0000    0.0000 C   0  0  0  0  0  0  0  0  0  0  0  0
   -0.7500   -1.2990    0.0000 C   0  0  0  0  0  0  0  0  0  0  0  0
   -4.3786   -5.1199    0.0000 C   0  0  0  0  0  0  0  0  0  0  0  0
   -8.9702   -7.9777    0.0000 C   0  0  0  0  0  0  0  0  0  0  0  0
  1  2  1  0
  2  3  1  0
  3  4  2  0
  4  5  1  0
  5  6  2  0
  6  7  1  0
  7  8  1  0
  8  9  2  0
  8 10  1  0
 10 11  1  0
 11 12  2  0
 12 13  1  0
 13 14  2  0
 14 15  1  0
 15 16  1  0
 16 17  2  0
 16 18  1  0
 18 19  2  0
 19 20  1  0
 20 21  1  0
 21 22  1  0
 21 23  1  0
 20 24  1  0
 24 25  2  0
 25 26  1  0
 26 27  2  0
 27 28  1  0
 28 29  2  0
 15 30  2  0
  7 31  2  0
 31  3  1  0
 30 11  1  0
 29 18  1  0
 29 24  1  0
M  END
>  <Compound_ID>  (531) 
CHEMBL3666392

>  <Molecule Name>  (531) 
nan

>  <Molecular Weight>  (531) 
416.44

>  <AlogP>  (531) 
3.29

>  <Smiles>  (531) 
COc1ccnc(C(=O)Nc2cncc(C(=O)c3cn(C(C)C)c4ncncc34)c2)c1

>  <Standard Type>  (531) 
IC50

>  <Standard Relation>  (531) 
'='

>  <Standard Units>  (531) 
nM

>  <Standard Value>  (531) 
70.4

>  <Assay ChEMBL ID>  (531) 
CHEMBL3887033

>  <Assay Description>  (531) 
Enzyme Assay: Isolated TRK Enzyme assays use the HTRF KinEASE-TK kit (Cisbio Cat# 62TK0PEJ) with recombinant His-tagged cytoplasmic domains of each TRK receptor sourced from Invitrogen (see table below). This activity-assay measures the phosphorylation of tyrosine residues within a substrate from the HTRF kit which has been validated by Cisbio for a variety of tyrosine kinases including the TRK receptors. Assay details: Target:TRKA; Invitrogen Cat# PV3144; Amino acids:aa 441-796; FAC enzyme:4nM; FAC ATP:40uM; Assay Reaction Time:35min.

>  <BAO Format ID>  (531) 
BAO_0000357

>  <BAO Label>  (531) 
single protein format

>  <Assay Organism>  (531) 
None

>  <Target ChEMBL ID>  (531) 
CHEMBL2815

>  <Target Name>  (531) 
Nerve growth factor receptor Trk-A

>  <Target Organism>  (531) 
Homo sapiens

>  <Target Type>  (531) 
SINGLE PROTEIN

>  <Document ChEMBL ID>  (531) 
CHEMBL3639348

>  <Source Description>  (531) 
BindingDB Database

>  <Document Journal>  (531) 
nan

>  <Document Year>  (531) 
2014.0

>  <Active>  (531) 
1.0

>  <bits>  (531) 
<rdkit.DataStructs.cDataStructs.ExplicitBitVect object at 0x00000159F5473D10>

>  <Group>  (531) 
G2

$$$$

     RDKit          2D

 25 27  0  0  0  0  0  0  0  0999 V2000
    5.4627   -4.5501    0.0000 N   0  0  0  0  0  0  0  0  0  0  0  0
    3.9955   -4.2382    0.0000 C   0  0  0  0  0  0  0  0  0  0  0  0
    3.5320   -2.8116    0.0000 O   0  0  0  0  0  0  0  0  0  0  0  0
    2.9918   -5.3529    0.0000 C   0  0  0  0  0  0  0  0  0  0  0  0
    1.5000   -5.1962    0.0000 C   0  0  0  0  0  0  0  0  0  0  0  0
    0.7500   -3.8971    0.0000 S   0  0  0  0  0  0  0  0  0  0  0  0
    1.5000   -2.5981    0.0000 C   0  0  0  0  0  0  0  0  0  0  0  0
    0.7500   -1.2990    0.0000 C   0  0  0  0  0  0  0  0  0  0  0  0
    1.5000    0.0000    0.0000 C   0  0  0  0  0  0  0  0  0  0  0  0
    0.7500    1.2990    0.0000 C   0  0  0  0  0  0  0  0  0  0  0  0
   -0.7500    1.2990    0.0000 C   0  0  0  0  0  0  0  0  0  0  0  0
   -1.5000    2.5981    0.0000 Cl  0  0  0  0  0  0  0  0  0  0  0  0
   -1.5000    0.0000    0.0000 C   0  0  0  0  0  0  0  0  0  0  0  0
   -0.7500   -1.2990    0.0000 C   0  0  0  0  0  0  0  0  0  0  0  0
    0.8899   -6.5665    0.0000 N   0  0  0  0  0  0  0  0  0  0  0  0
    2.0046   -7.5702    0.0000 S   0  0  0  0  0  0  0  0  0  0  0  0
    3.3037   -6.8202    0.0000 C   0  0  0  0  0  0  0  0  0  0  0  0
    4.6740   -7.4303    0.0000 N   0  0  0  0  0  0  0  0  0  0  0  0
    4.8308   -8.9221    0.0000 C   0  0  0  0  0  0  0  0  0  0  0  0
    3.6172   -9.8037    0.0000 C   0  0  0  0  0  0  0  0  0  0  0  0
    3.7740  -11.2955    0.0000 C   0  0  0  0  0  0  0  0  0  0  0  0
    5.1443  -11.9056    0.0000 C   0  0  0  0  0  0  0  0  0  0  0  0
    5.3011  -13.3974    0.0000 O   0  0  0  0  0  0  0  0  0  0  0  0
    6.3579  -11.0239    0.0000 N   0  0  0  0  0  0  0  0  0  0  0  0
    6.2011   -9.5322    0.0000 C   0  0  0  0  0  0  0  0  0  0  0  0
  1  2  1  0
  2  3  2  0
  2  4  1  0
  4  5  1  0
  5  6  1  0
  6  7  1  0
  7  8  1  0
  8  9  2  0
  9 10  1  0
 10 11  2  0
 11 12  1  0
 11 13  1  0
 13 14  2  0
  5 15  2  0
 15 16  1  0
 16 17  1  0
 17 18  1  0
 18 19  1  0
 19 20  2  0
 20 21  1  0
 21 22  2  0
 22 23  1  0
 22 24  1  0
 24 25  2  0
 17  4  2  0
 25 19  1  0
 14  8  1  0
M  END
>  <Compound_ID>  (532) 
CHEMBL209506

>  <Molecule Name>  (532) 
nan

>  <Molecular Weight>  (532) 
392.89

>  <AlogP>  (532) 
4.03

>  <Smiles>  (532) 
NC(=O)c1c(SCc2ccc(Cl)cc2)nsc1Nc1ccc(O)nc1

>  <Standard Type>  (532) 
IC50

>  <Standard Relation>  (532) 
'='

>  <Standard Units>  (532) 
nM

>  <Standard Value>  (532) 
84.0

>  <Assay ChEMBL ID>  (532) 
CHEMBL867240

>  <Assay Description>  (532) 
Inhibition of TrkA kinase

>  <BAO Format ID>  (532) 
BAO_0000357

>  <BAO Label>  (532) 
single protein format

>  <Assay Organism>  (532) 
Homo sapiens

>  <Target ChEMBL ID>  (532) 
CHEMBL2815

>  <Target Name>  (532) 
Nerve growth factor receptor Trk-A

>  <Target Organism>  (532) 
Homo sapiens

>  <Target Type>  (532) 
SINGLE PROTEIN

>  <Document ChEMBL ID>  (532) 
CHEMBL1138090

>  <Source Description>  (532) 
Scientific Literature

>  <Document Journal>  (532) 
Bioorg Med Chem Lett

>  <Document Year>  (532) 
2006.0

>  <Active>  (532) 
1.0

>  <bits>  (532) 
<rdkit.DataStructs.cDataStructs.ExplicitBitVect object at 0x00000159F5473920>

>  <Group>  (532) 
G2

$$$$

     RDKit          2D

 41 45  0  0  0  0  0  0  0  0999 V2000
    5.2500   -6.4952    0.0000 C   0  0  0  0  0  0  0  0  0  0  0  0
    6.0000   -5.1962    0.0000 S   0  0  0  0  0  0  0  0  0  0  0  0
    5.2500   -3.8971    0.0000 C   0  0  0  0  0  0  0  0  0  0  0  0
    3.7500   -3.8971    0.0000 C   0  0  0  0  0  0  0  0  0  0  0  0
    3.0000   -2.5981    0.0000 C   0  0  0  0  0  0  0  0  0  0  0  0
    1.5000   -2.5981    0.0000 N   0  0  0  0  0  0  0  0  0  0  0  0
    0.7500   -1.2990    0.0000 C   0  0  0  0  0  0  0  0  0  0  0  0
    1.5000    0.0000    0.0000 N   0  0  0  0  0  0  0  0  0  0  0  0
    0.7500    1.2990    0.0000 C   0  0  0  0  0  0  0  0  0  0  0  0
   -0.7500    1.2990    0.0000 N   0  0  0  0  0  0  0  0  0  0  0  0
   -1.5000    0.0000    0.0000 C   0  0  0  0  0  0  0  0  0  0  0  0
   -0.7500   -1.2990    0.0000 C   0  0  0  0  0  0  0  0  0  0  0  0
   -1.5000   -2.5981    0.0000 O   0  0  0  0  0  0  0  0  0  0  0  0
   -3.0000   -2.5981    0.0000 C   0  0  0  0  0  0  0  0  0  0  0  0
   -4.4095   -3.1111    0.0000 C   0  0  0  0  0  0  0  0  0  0  0  0
   -2.7395   -4.0753    0.0000 C   0  0  0  0  0  0  0  0  0  0  0  0
   -3.7500   -1.2990    0.0000 C   0  0  0  0  0  0  0  0  0  0  0  0
   -5.2500   -1.2990    0.0000 O   0  0  0  0  0  0  0  0  0  0  0  0
   -3.0000    0.0000    0.0000 N   0  0  0  0  0  0  0  0  0  0  0  0
    3.7500   -1.2990    0.0000 C   0  0  0  0  0  0  0  0  0  0  0  0
    5.2500   -1.2990    0.0000 C   0  0  0  0  0  0  0  0  0  0  0  0
    6.0000   -2.5981    0.0000 C   0  0  0  0  0  0  0  0  0  0  0  0
    7.5000   -2.5981    0.0000 N   0  0  0  0  0  0  0  0  0  0  0  0
    8.2500   -1.2990    0.0000 C   0  0  0  0  0  0  0  0  0  0  0  0
    7.5000   -0.0000    0.0000 O   0  0  0  0  0  0  0  0  0  0  0  0
    9.7500   -1.2990    0.0000 N   0  0  0  0  0  0  0  0  0  0  0  0
   10.5000   -0.0000    0.0000 C   0  0  0  0  0  0  0  0  0  0  0  0
    9.8899    1.3703    0.0000 C   0  0  0  0  0  0  0  0  0  0  0  0
   11.0046    2.3740    0.0000 C   0  0  0  0  0  0  0  0  0  0  0  0
   10.8478    3.8658    0.0000 C   0  0  0  0  0  0  0  0  0  0  0  0
   12.3396    4.0226    0.0000 C   0  0  0  0  0  0  0  0  0  0  0  0
    9.3560    3.7090    0.0000 C   0  0  0  0  0  0  0  0  0  0  0  0
   10.6910    5.3576    0.0000 C   0  0  0  0  0  0  0  0  0  0  0  0
   12.3037    1.6240    0.0000 N   0  0  0  0  0  0  0  0  0  0  0  0
   11.9918    0.1568    0.0000 N   0  0  0  0  0  0  0  0  0  0  0  0
   12.9955   -0.9579    0.0000 C   0  0  0  0  0  0  0  0  0  0  0  0
   12.5320   -2.3845    0.0000 C   0  0  0  0  0  0  0  0  0  0  0  0
   13.5356   -3.4992    0.0000 C   0  0  0  0  0  0  0  0  0  0  0  0
   15.0029   -3.1874    0.0000 C   0  0  0  0  0  0  0  0  0  0  0  0
   15.4664   -1.7608    0.0000 C   0  0  0  0  0  0  0  0  0  0  0  0
   14.4627   -0.6461    0.0000 C   0  0  0  0  0  0  0  0  0  0  0  0
  1  2  1  0
  2  3  1  0
  3  4  2  0
  4  5  1  0
  5  6  1  0
  6  7  1  0
  7  8  2  0
  8  9  1  0
  9 10  2  0
 10 11  1  0
 11 12  2  0
 12 13  1  0
 13 14  1  0
 14 15  1  0
 14 16  1  0
 14 17  1  0
 17 18  2  0
 17 19  1  0
  5 20  2  0
 20 21  1  0
 21 22  2  0
 22 23  1  0
 23 24  1  0
 24 25  2  0
 24 26  1  0
 26 27  1  0
 27 28  2  0
 28 29  1  0
 29 30  1  0
 30 31  1  0
 30 32  1  0
 30 33  1  0
 29 34  2  0
 34 35  1  0
 35 36  1  0
 36 37  2  0
 37 38  1  0
 38 39  2  0
 39 40  1  0
 40 41  2  0
 22  3  1  0
 35 27  1  0
 41 36  1  0
 12  7  1  0
 19 11  1  0
M  END
>  <Compound_ID>  (533) 
CHEMBL5075039

>  <Molecule Name>  (533) 
nan

>  <Molecular Weight>  (533) 
572.7

>  <AlogP>  (533) 
6.18

>  <Smiles>  (533) 
CSc1cc(Nc2ncnc3c2OC(C)(C)C(=O)N3)ccc1NC(=O)Nc1cc(C(C)(C)C)nn1-c1ccccc1

>  <Standard Type>  (533) 
IC50

>  <Standard Relation>  (533) 
'='

>  <Standard Units>  (533) 
nM

>  <Standard Value>  (533) 
89.0

>  <Assay ChEMBL ID>  (533) 
CHEMBL5045112

>  <Assay Description>  (533) 
Inhibition of wild type TrkA (unknown origin) using poly(Glu: Tyr) as substrate preincubated for 15 mins followed by substrate addition and further incubated for 30 mins in presence of [gamma-33P]ATP by scintillation counting method

>  <BAO Format ID>  (533) 
BAO_0000357

>  <BAO Label>  (533) 
single protein format

>  <Assay Organism>  (533) 
Homo sapiens

>  <Target ChEMBL ID>  (533) 
CHEMBL2815

>  <Target Name>  (533) 
Nerve growth factor receptor Trk-A

>  <Target Organism>  (533) 
Homo sapiens

>  <Target Type>  (533) 
SINGLE PROTEIN

>  <Document ChEMBL ID>  (533) 
CHEMBL5042533

>  <Source Description>  (533) 
Scientific Literature

>  <Document Journal>  (533) 
J Med Chem

>  <Document Year>  (533) 
2022.0

>  <Active>  (533) 
1.0

>  <bits>  (533) 
<rdkit.DataStructs.cDataStructs.ExplicitBitVect object at 0x00000159F54736F0>

>  <Group>  (533) 
G2

$$$$

     RDKit          2D

 28 32  0  0  0  0  0  0  0  0999 V2000
   -5.4853   -5.8293    0.0000 C   0  0  0  0  0  0  0  0  0  0  0  0
   -4.6036   -4.6157    0.0000 N   0  0  0  0  0  0  0  0  0  0  0  0
   -3.1036   -4.6157    0.0000 C   0  0  0  0  0  0  0  0  0  0  0  0
   -2.6401   -3.1891    0.0000 C   0  0  0  0  0  0  0  0  0  0  0  0
   -1.2135   -2.7256    0.0000 C   0  0  0  0  0  0  0  0  0  0  0  0
   -0.0000   -3.6073    0.0000 C   0  0  0  0  0  0  0  0  0  0  0  0
    1.2135   -2.7256    0.0000 N   0  0  0  0  0  0  0  0  0  0  0  0
    0.7500   -1.2990    0.0000 N   0  0  0  0  0  0  0  0  0  0  0  0
    1.5000    0.0000    0.0000 C   0  0  0  0  0  0  0  0  0  0  0  0
    0.7500    1.2990    0.0000 C   0  0  0  0  0  0  0  0  0  0  0  0
   -0.7500    1.2990    0.0000 C   0  0  0  0  0  0  0  0  0  0  0  0
   -1.5000    2.5981    0.0000 N   0  0  0  0  0  0  0  0  0  0  0  0
   -2.9918    2.7549    0.0000 C   0  0  0  0  0  0  0  0  0  0  0  0
   -3.3037    4.2221    0.0000 C   0  0  0  0  0  0  0  0  0  0  0  0
   -2.0046    4.9721    0.0000 C   0  0  0  0  0  0  0  0  0  0  0  0
   -0.8899    3.9684    0.0000 C   0  0  0  0  0  0  0  0  0  0  0  0
    0.5773    4.2803    0.0000 C   0  0  0  0  0  0  0  0  0  0  0  0
    1.5810    3.1655    0.0000 C   0  0  0  0  0  0  0  0  0  0  0  0
    3.0482    3.4774    0.0000 C   0  0  0  0  0  0  0  0  0  0  0  0
    4.0519    2.3627    0.0000 F   0  0  0  0  0  0  0  0  0  0  0  0
    3.5118    4.9040    0.0000 C   0  0  0  0  0  0  0  0  0  0  0  0
    2.5081    6.0187    0.0000 C   0  0  0  0  0  0  0  0  0  0  0  0
    1.0409    5.7068    0.0000 C   0  0  0  0  0  0  0  0  0  0  0  0
    0.0372    6.8216    0.0000 F   0  0  0  0  0  0  0  0  0  0  0  0
   -1.5000    0.0000    0.0000 N   0  0  0  0  0  0  0  0  0  0  0  0
   -0.7500   -1.2990    0.0000 C   0  0  0  0  0  0  0  0  0  0  0  0
   -3.8536   -2.3075    0.0000 C   0  0  0  0  0  0  0  0  0  0  0  0
   -5.0672   -3.1891    0.0000 N   0  0  0  0  0  0  0  0  0  0  0  0
  1  2  1  0
  2  3  1  0
  3  4  2  0
  4  5  1  0
  5  6  1  0
  6  7  2  0
  7  8  1  0
  8  9  1  0
  9 10  2  0
 10 11  1  0
 11 12  1  0
 12 13  1  0
 13 14  1  0
 14 15  1  0
 15 16  1  0
 16 17  1  6
 17 18  2  0
 18 19  1  0
 19 20  1  0
 19 21  2  0
 21 22  1  0
 22 23  2  0
 23 24  1  0
 11 25  2  0
 25 26  1  0
  4 27  1  0
 27 28  2  0
 28  2  1  0
 26  5  2  0
 26  8  1  0
 16 12  1  0
 23 17  1  0
M  END
>  <Compound_ID>  (534) 
CHEMBL5075273

>  <Molecule Name>  (534) 
nan

>  <Molecular Weight>  (534) 
380.4

>  <AlogP>  (534) 
3.75

>  <Smiles>  (534) 
Cn1cc(-c2cnn3ccc(N4CCC[C@@H]4c4cc(F)ccc4F)nc23)cn1

>  <Standard Type>  (534) 
IC50

>  <Standard Relation>  (534) 
'='

>  <Standard Units>  (534) 
nM

>  <Standard Value>  (534) 
0.4

>  <Assay ChEMBL ID>  (534) 
CHEMBL5035648

>  <Assay Description>  (534) 
Inhibition of wildtype TRKA (unknown origin) preincubated for 30 mins followed by biotinylated TK-peptide substrate addition and measured after 40 mins by FRET-based Z-lyte kinase assay

>  <BAO Format ID>  (534) 
BAO_0000357

>  <BAO Label>  (534) 
single protein format

>  <Assay Organism>  (534) 
Homo sapiens

>  <Target ChEMBL ID>  (534) 
CHEMBL2815

>  <Target Name>  (534) 
Nerve growth factor receptor Trk-A

>  <Target Organism>  (534) 
Homo sapiens

>  <Target Type>  (534) 
SINGLE PROTEIN

>  <Document ChEMBL ID>  (534) 
CHEMBL5034031

>  <Source Description>  (534) 
Scientific Literature

>  <Document Journal>  (534) 
J Med Chem

>  <Document Year>  (534) 
2021.0

>  <Active>  (534) 
1.0

>  <bits>  (534) 
<rdkit.DataStructs.cDataStructs.ExplicitBitVect object at 0x00000159F5473530>

>  <Group>  (534) 
G2

$$$$

     RDKit          2D

 31 34  0  0  0  0  0  0  0  0999 V2000
   -0.7500   -3.8971    0.0000 C   0  0  0  0  0  0  0  0  0  0  0  0
    0.7500   -3.8971    0.0000 C   0  0  0  0  0  0  0  0  0  0  0  0
    1.5000   -2.5981    0.0000 N   0  0  0  0  0  0  0  0  0  0  0  0
    0.7500   -1.2990    0.0000 C   0  0  0  0  0  0  0  0  0  0  0  0
    1.5000    0.0000    0.0000 C   0  0  0  0  0  0  0  0  0  0  0  0
    0.7500    1.2990    0.0000 C   0  0  0  0  0  0  0  0  0  0  0  0
   -0.7500    1.2990    0.0000 N   0  0  0  0  0  0  0  0  0  0  0  0
   -1.7537    2.4138    0.0000 N   0  0  0  0  0  0  0  0  0  0  0  0
   -3.1240    1.8037    0.0000 C   0  0  0  0  0  0  0  0  0  0  0  0
   -2.9672    0.3119    0.0000 C   0  0  0  0  0  0  0  0  0  0  0  0
   -4.0819   -0.6918    0.0000 N   0  0  0  0  0  0  0  0  0  0  0  0
   -5.5085   -0.2283    0.0000 C   0  0  0  0  0  0  0  0  0  0  0  0
   -5.8204    1.2389    0.0000 O   0  0  0  0  0  0  0  0  0  0  0  0
   -6.6232   -1.2320    0.0000 N   0  0  0  0  0  0  0  0  0  0  0  0
   -8.0498   -0.7685    0.0000 C   0  0  0  0  0  0  0  0  0  0  0  0
   -8.3617    0.6987    0.0000 C   0  0  0  0  0  0  0  0  0  0  0  0
   -9.7883    1.1623    0.0000 C   0  0  0  0  0  0  0  0  0  0  0  0
  -10.9030    0.1586    0.0000 C   0  0  0  0  0  0  0  0  0  0  0  0
  -12.3296    0.6221    0.0000 O   0  0  0  0  0  0  0  0  0  0  0  0
  -10.5911   -1.3086    0.0000 C   0  0  0  0  0  0  0  0  0  0  0  0
   -9.1645   -1.7722    0.0000 C   0  0  0  0  0  0  0  0  0  0  0  0
   -1.5000    0.0000    0.0000 C   0  0  0  0  0  0  0  0  0  0  0  0
   -0.7500   -1.2990    0.0000 N   0  0  0  0  0  0  0  0  0  0  0  0
    1.5000   -5.1962    0.0000 C   0  0  0  0  0  0  0  0  0  0  0  0
    3.0000   -5.1962    0.0000 C   0  0  0  0  0  0  0  0  0  0  0  0
    3.7500   -6.4952    0.0000 C   0  0  0  0  0  0  0  0  0  0  0  0
    5.2500   -6.4952    0.0000 F   0  0  0  0  0  0  0  0  0  0  0  0
    3.0000   -7.7942    0.0000 C   0  0  0  0  0  0  0  0  0  0  0  0
    1.5000   -7.7942    0.0000 C   0  0  0  0  0  0  0  0  0  0  0  0
    0.7500   -6.4952    0.0000 C   0  0  0  0  0  0  0  0  0  0  0  0
   -0.7500   -6.4952    0.0000 F   0  0  0  0  0  0  0  0  0  0  0  0
  2  1  1  1
  2  3  1  0
  3  4  1  0
  4  5  1  0
  5  6  2  0
  6  7  1  0
  7  8  1  0
  8  9  2  0
  9 10  1  0
 10 11  1  0
 11 12  1  0
 12 13  2  0
 12 14  1  0
 14 15  1  0
 15 16  2  0
 16 17  1  0
 17 18  2  0
 18 19  1  0
 18 20  1  0
 20 21  2  0
 10 22  2  0
 22 23  1  0
  2 24  1  0
 24 25  2  0
 25 26  1  0
 26 27  1  0
 26 28  2  0
 28 29  1  0
 29 30  2  0
 30 31  1  0
 23  4  2  0
 30 24  1  0
 22  7  1  0
 21 15  1  0
M  END
>  <Compound_ID>  (535) 
CHEMBL4780959

>  <Molecule Name>  (535) 
nan

>  <Molecular Weight>  (535) 
424.41

>  <AlogP>  (535) 
4.53

>  <Smiles>  (535) 
C[C@@H](Nc1ccn2ncc(NC(=O)Nc3ccc(O)cc3)c2n1)c1cc(F)ccc1F

>  <Standard Type>  (535) 
IC50

>  <Standard Relation>  (535) 
'='

>  <Standard Units>  (535) 
nM

>  <Standard Value>  (535) 
56.0

>  <Assay ChEMBL ID>  (535) 
CHEMBL4678168

>  <Assay Description>  (535) 
Inhibition of Trk-A (unknown origin)

>  <BAO Format ID>  (535) 
BAO_0000357

>  <BAO Label>  (535) 
single protein format

>  <Assay Organism>  (535) 
Homo sapiens

>  <Target ChEMBL ID>  (535) 
CHEMBL2815

>  <Target Name>  (535) 
Nerve growth factor receptor Trk-A

>  <Target Organism>  (535) 
Homo sapiens

>  <Target Type>  (535) 
SINGLE PROTEIN

>  <Document ChEMBL ID>  (535) 
CHEMBL4673327

>  <Source Description>  (535) 
Scientific Literature

>  <Document Journal>  (535) 
Bioorg Med Chem Lett

>  <Document Year>  (535) 
2021.0

>  <Active>  (535) 
1.0

>  <bits>  (535) 
<rdkit.DataStructs.cDataStructs.ExplicitBitVect object at 0x00000159F5472EA0>

>  <Group>  (535) 
G2

$$$$

     RDKit          2D

 30 32  0  0  0  0  0  0  0  0999 V2000
    5.2500   -1.2990    0.0000 C   0  0  0  0  0  0  0  0  0  0  0  0
    3.7500   -1.2990    0.0000 N   0  0  0  0  0  0  0  0  0  0  0  0
    3.0000   -2.5981    0.0000 C   0  0  0  0  0  0  0  0  0  0  0  0
    3.0000    0.0000    0.0000 C   0  0  0  0  0  0  0  0  0  0  0  0
    3.7500    1.2990    0.0000 O   0  0  0  0  0  0  0  0  0  0  0  0
    1.5000    0.0000    0.0000 C   0  0  0  0  0  0  0  0  0  0  0  0
    0.7500   -1.2990    0.0000 C   0  0  0  0  0  0  0  0  0  0  0  0
   -0.7500   -1.2990    0.0000 C   0  0  0  0  0  0  0  0  0  0  0  0
   -1.5000    0.0000    0.0000 C   0  0  0  0  0  0  0  0  0  0  0  0
   -3.0000    0.0000    0.0000 N   0  0  0  0  0  0  0  0  0  0  0  0
   -3.7500    1.2990    0.0000 C   0  0  0  0  0  0  0  0  0  0  0  0
   -3.0000    2.5981    0.0000 N   0  0  0  0  0  0  0  0  0  0  0  0
   -3.7500    3.8971    0.0000 C   0  0  0  0  0  0  0  0  0  0  0  0
   -5.2500    3.8971    0.0000 C   0  0  0  0  0  0  0  0  0  0  0  0
   -6.0000    5.1962    0.0000 C   0  0  0  0  0  0  0  0  0  0  0  0
   -6.7500    6.4952    0.0000 F   0  0  0  0  0  0  0  0  0  0  0  0
   -4.7010    5.9462    0.0000 F   0  0  0  0  0  0  0  0  0  0  0  0
   -7.2990    4.4462    0.0000 F   0  0  0  0  0  0  0  0  0  0  0  0
   -6.0000    2.5981    0.0000 C   0  0  0  0  0  0  0  0  0  0  0  0
   -7.5000    2.5981    0.0000 N   0  0  0  0  0  0  0  0  0  0  0  0
   -8.2500    1.2990    0.0000 C   0  0  0  0  0  0  0  0  0  0  0  0
   -9.7500    1.2990    0.0000 C   0  0  0  0  0  0  0  0  0  0  0  0
  -10.5000    0.0000    0.0000 C   0  0  0  0  0  0  0  0  0  0  0  0
   -9.7500   -1.2990    0.0000 C   0  0  0  0  0  0  0  0  0  0  0  0
  -10.5000   -2.5981    0.0000 N   0  0  0  0  0  0  0  0  0  0  0  0
   -8.2500   -1.2990    0.0000 C   0  0  0  0  0  0  0  0  0  0  0  0
   -7.5000    0.0000    0.0000 C   0  0  0  0  0  0  0  0  0  0  0  0
   -5.2500    1.2990    0.0000 N   0  0  0  0  0  0  0  0  0  0  0  0
   -0.7500    1.2990    0.0000 C   0  0  0  0  0  0  0  0  0  0  0  0
    0.7500    1.2990    0.0000 C   0  0  0  0  0  0  0  0  0  0  0  0
  1  2  1  0
  2  3  1  0
  2  4  1  0
  4  5  2  0
  4  6  1  0
  6  7  2  0
  7  8  1  0
  8  9  2  0
  9 10  1  0
 10 11  1  0
 11 12  2  0
 12 13  1  0
 13 14  2  0
 14 15  1  0
 15 16  1  0
 15 17  1  0
 15 18  1  0
 14 19  1  0
 19 20  1  0
 21 20  1  6
 21 22  1  0
 22 23  1  0
 23 24  1  0
 24 25  1  6
 24 26  1  0
 26 27  1  0
 19 28  2  0
  9 29  1  0
 29 30  2  0
 30  6  1  0
 28 11  1  0
 27 21  1  0
M  END
>  <Compound_ID>  (536) 
CHEMBL5092606

>  <Molecule Name>  (536) 
nan

>  <Molecular Weight>  (536) 
422.46

>  <AlogP>  (536) 
3.62

>  <Smiles>  (536) 
CN(C)C(=O)c1ccc(Nc2ncc(C(F)(F)F)c(N[C@H]3CC[C@@H](N)CC3)n2)cc1

>  <Standard Type>  (536) 
IC50

>  <Standard Relation>  (536) 
'='

>  <Standard Units>  (536) 
nM

>  <Standard Value>  (536) 
36.46

>  <Assay ChEMBL ID>  (536) 
CHEMBL5045759

>  <Assay Description>  (536) 
Inhibition of human recombinant TRKA incubated for 1 hrs by HTRF KinEASE TK assay

>  <BAO Format ID>  (536) 
BAO_0000357

>  <BAO Label>  (536) 
single protein format

>  <Assay Organism>  (536) 
Homo sapiens

>  <Target ChEMBL ID>  (536) 
CHEMBL2815

>  <Target Name>  (536) 
Nerve growth factor receptor Trk-A

>  <Target Organism>  (536) 
Homo sapiens

>  <Target Type>  (536) 
SINGLE PROTEIN

>  <Document ChEMBL ID>  (536) 
CHEMBL5042545

>  <Source Description>  (536) 
Scientific Literature

>  <Document Journal>  (536) 
J Med Chem

>  <Document Year>  (536) 
2022.0

>  <Active>  (536) 
1.0

>  <bits>  (536) 
<rdkit.DataStructs.cDataStructs.ExplicitBitVect object at 0x00000159F5472DC0>

>  <Group>  (536) 
G2

$$$$

     RDKit          2D

 41 45  0  0  0  0  0  0  0  0999 V2000
    3.7500    1.2990    0.0000 C   0  0  0  0  0  0  0  0  0  0  0  0
    3.0000   -0.0000    0.0000 O   0  0  0  0  0  0  0  0  0  0  0  0
    3.7500   -1.2990    0.0000 C   0  0  0  0  0  0  0  0  0  0  0  0
    5.2500   -1.2990    0.0000 C   0  0  0  0  0  0  0  0  0  0  0  0
    6.0000   -2.5981    0.0000 C   0  0  0  0  0  0  0  0  0  0  0  0
    7.5000   -2.5981    0.0000 N   0  0  0  0  0  0  0  0  0  0  0  0
    8.2500   -3.8971    0.0000 C   0  0  0  0  0  0  0  0  0  0  0  0
    7.5000   -5.1962    0.0000 O   0  0  0  0  0  0  0  0  0  0  0  0
    9.7500   -3.8971    0.0000 N   0  0  0  0  0  0  0  0  0  0  0  0
   10.5000   -5.1962    0.0000 C   0  0  0  0  0  0  0  0  0  0  0  0
    9.8899   -6.5665    0.0000 C   0  0  0  0  0  0  0  0  0  0  0  0
   11.0046   -7.5702    0.0000 C   0  0  0  0  0  0  0  0  0  0  0  0
   10.8478   -9.0619    0.0000 C   0  0  0  0  0  0  0  0  0  0  0  0
   12.3396   -9.2187    0.0000 C   0  0  0  0  0  0  0  0  0  0  0  0
    9.3560   -8.9052    0.0000 C   0  0  0  0  0  0  0  0  0  0  0  0
   10.6910  -10.5537    0.0000 C   0  0  0  0  0  0  0  0  0  0  0  0
   12.3037   -6.8202    0.0000 N   0  0  0  0  0  0  0  0  0  0  0  0
   11.9918   -5.3529    0.0000 N   0  0  0  0  0  0  0  0  0  0  0  0
   12.9955   -4.2382    0.0000 C   0  0  0  0  0  0  0  0  0  0  0  0
   12.5320   -2.8116    0.0000 C   0  0  0  0  0  0  0  0  0  0  0  0
   13.5356   -1.6969    0.0000 C   0  0  0  0  0  0  0  0  0  0  0  0
   15.0029   -2.0088    0.0000 C   0  0  0  0  0  0  0  0  0  0  0  0
   15.4664   -3.4354    0.0000 C   0  0  0  0  0  0  0  0  0  0  0  0
   14.4627   -4.5501    0.0000 C   0  0  0  0  0  0  0  0  0  0  0  0
    5.2500   -3.8971    0.0000 C   0  0  0  0  0  0  0  0  0  0  0  0
    3.7500   -3.8971    0.0000 C   0  0  0  0  0  0  0  0  0  0  0  0
    3.0000   -2.5981    0.0000 C   0  0  0  0  0  0  0  0  0  0  0  0
    1.5000   -2.5981    0.0000 N   0  0  0  0  0  0  0  0  0  0  0  0
    0.7500   -1.2990    0.0000 C   0  0  0  0  0  0  0  0  0  0  0  0
    1.5000    0.0000    0.0000 N   0  0  0  0  0  0  0  0  0  0  0  0
    0.7500    1.2990    0.0000 C   0  0  0  0  0  0  0  0  0  0  0  0
   -0.7500    1.2990    0.0000 N   0  0  0  0  0  0  0  0  0  0  0  0
   -1.5000    0.0000    0.0000 C   0  0  0  0  0  0  0  0  0  0  0  0
   -0.7500   -1.2990    0.0000 C   0  0  0  0  0  0  0  0  0  0  0  0
   -1.5000   -2.5981    0.0000 O   0  0  0  0  0  0  0  0  0  0  0  0
   -3.0000   -2.5981    0.0000 C   0  0  0  0  0  0  0  0  0  0  0  0
   -4.4095   -3.1111    0.0000 C   0  0  0  0  0  0  0  0  0  0  0  0
   -2.7395   -4.0753    0.0000 C   0  0  0  0  0  0  0  0  0  0  0  0
   -3.7500   -1.2990    0.0000 C   0  0  0  0  0  0  0  0  0  0  0  0
   -5.2500   -1.2990    0.0000 O   0  0  0  0  0  0  0  0  0  0  0  0
   -3.0000    0.0000    0.0000 N   0  0  0  0  0  0  0  0  0  0  0  0
  1  2  1  0
  2  3  1  0
  3  4  2  0
  4  5  1  0
  5  6  1  0
  6  7  1  0
  7  8  2  0
  7  9  1  0
  9 10  1  0
 10 11  2  0
 11 12  1  0
 12 13  1  0
 13 14  1  0
 13 15  1  0
 13 16  1  0
 12 17  2  0
 17 18  1  0
 18 19  1  0
 19 20  2  0
 20 21  1  0
 21 22  2  0
 22 23  1  0
 23 24  2  0
  5 25  2  0
 25 26  1  0
 26 27  2  0
 27 28  1  0
 28 29  1  0
 29 30  2  0
 30 31  1  0
 31 32  2  0
 32 33  1  0
 33 34  2  0
 34 35  1  0
 35 36  1  0
 36 37  1  0
 36 38  1  0
 36 39  1  0
 39 40  2  0
 39 41  1  0
 27  3  1  0
 34 29  1  0
 18 10  1  0
 24 19  1  0
 41 33  1  0
M  END
>  <Compound_ID>  (537) 
CHEMBL5088966

>  <Molecule Name>  (537) 
nan

>  <Molecular Weight>  (537) 
556.63

>  <AlogP>  (537) 
5.47

>  <Smiles>  (537) 
COc1cc(NC(=O)Nc2cc(C(C)(C)C)nn2-c2ccccc2)ccc1Nc1ncnc2c1OC(C)(C)C(=O)N2

>  <Standard Type>  (537) 
IC50

>  <Standard Relation>  (537) 
'='

>  <Standard Units>  (537) 
nM

>  <Standard Value>  (537) 
50.0

>  <Assay ChEMBL ID>  (537) 
CHEMBL5045112

>  <Assay Description>  (537) 
Inhibition of wild type TrkA (unknown origin) using poly(Glu: Tyr) as substrate preincubated for 15 mins followed by substrate addition and further incubated for 30 mins in presence of [gamma-33P]ATP by scintillation counting method

>  <BAO Format ID>  (537) 
BAO_0000357

>  <BAO Label>  (537) 
single protein format

>  <Assay Organism>  (537) 
Homo sapiens

>  <Target ChEMBL ID>  (537) 
CHEMBL2815

>  <Target Name>  (537) 
Nerve growth factor receptor Trk-A

>  <Target Organism>  (537) 
Homo sapiens

>  <Target Type>  (537) 
SINGLE PROTEIN

>  <Document ChEMBL ID>  (537) 
CHEMBL5042533

>  <Source Description>  (537) 
Scientific Literature

>  <Document Journal>  (537) 
J Med Chem

>  <Document Year>  (537) 
2022.0

>  <Active>  (537) 
1.0

>  <bits>  (537) 
<rdkit.DataStructs.cDataStructs.ExplicitBitVect object at 0x00000159F5472CE0>

>  <Group>  (537) 
G2

$$$$

     RDKit          2D

 29 32  0  0  0  0  0  0  0  0999 V2000
   -6.4289   -8.5179    0.0000 N   0  0  0  0  0  0  0  0  0  0  0  0
   -6.1170   -7.0506    0.0000 C   0  0  0  0  0  0  0  0  0  0  0  0
   -4.6904   -6.5871    0.0000 C   0  0  0  0  0  0  0  0  0  0  0  0
   -4.3786   -5.1199    0.0000 C   0  0  0  0  0  0  0  0  0  0  0  0
   -2.9520   -4.6564    0.0000 N   0  0  0  0  0  0  0  0  0  0  0  0
   -2.6401   -3.1891    0.0000 C   0  0  0  0  0  0  0  0  0  0  0  0
   -3.7548   -2.1855    0.0000 O   0  0  0  0  0  0  0  0  0  0  0  0
   -1.2135   -2.7256    0.0000 C   0  0  0  0  0  0  0  0  0  0  0  0
   -0.0000   -3.6073    0.0000 C   0  0  0  0  0  0  0  0  0  0  0  0
    1.2135   -2.7256    0.0000 N   0  0  0  0  0  0  0  0  0  0  0  0
    0.7500   -1.2990    0.0000 N   0  0  0  0  0  0  0  0  0  0  0  0
    1.5000    0.0000    0.0000 C   0  0  0  0  0  0  0  0  0  0  0  0
    0.7500    1.2990    0.0000 C   0  0  0  0  0  0  0  0  0  0  0  0
   -0.7500    1.2990    0.0000 C   0  0  0  0  0  0  0  0  0  0  0  0
   -1.5000    2.5981    0.0000 N   0  0  0  0  0  0  0  0  0  0  0  0
   -2.9918    2.7549    0.0000 C   0  0  0  0  0  0  0  0  0  0  0  0
   -3.3037    4.2221    0.0000 C   0  0  0  0  0  0  0  0  0  0  0  0
   -2.0046    4.9721    0.0000 C   0  0  0  0  0  0  0  0  0  0  0  0
   -0.8899    3.9684    0.0000 C   0  0  0  0  0  0  0  0  0  0  0  0
    0.5773    4.2803    0.0000 C   0  0  0  0  0  0  0  0  0  0  0  0
    1.5810    3.1655    0.0000 C   0  0  0  0  0  0  0  0  0  0  0  0
    3.0482    3.4774    0.0000 C   0  0  0  0  0  0  0  0  0  0  0  0
    4.0519    2.3627    0.0000 F   0  0  0  0  0  0  0  0  0  0  0  0
    3.5118    4.9040    0.0000 C   0  0  0  0  0  0  0  0  0  0  0  0
    2.5081    6.0187    0.0000 N   0  0  0  0  0  0  0  0  0  0  0  0
    1.0409    5.7068    0.0000 C   0  0  0  0  0  0  0  0  0  0  0  0
    0.0372    6.8216    0.0000 O   0  0  0  0  0  0  0  0  0  0  0  0
   -1.5000    0.0000    0.0000 N   0  0  0  0  0  0  0  0  0  0  0  0
   -0.7500   -1.2990    0.0000 C   0  0  0  0  0  0  0  0  0  0  0  0
  1  2  1  0
  2  3  1  0
  3  4  1  0
  4  5  1  0
  5  6  1  0
  6  7  2  0
  6  8  1  0
  8  9  1  0
  9 10  2  0
 10 11  1  0
 11 12  1  0
 12 13  2  0
 13 14  1  0
 14 15  1  0
 15 16  1  0
 16 17  1  0
 17 18  1  0
 18 19  1  0
 19 20  1  6
 20 21  2  0
 21 22  1  0
 22 23  1  0
 22 24  2  0
 24 25  1  0
 25 26  1  0
 26 27  2  0
 14 28  2  0
 28 29  1  0
 29  8  2  0
 29 11  1  0
 19 15  1  0
 26 20  1  0
M  END
>  <Compound_ID>  (538) 
CHEMBL3676016

>  <Molecule Name>  (538) 
nan

>  <Molecular Weight>  (538) 
399.43

>  <AlogP>  (538) 
0.98

>  <Smiles>  (538) 
NCCCNC(=O)c1cnn2ccc(N3CCC[C@@H]3c3cc(F)c[nH]c3=O)nc12

>  <Standard Type>  (538) 
IC50

>  <Standard Relation>  (538) 
'='

>  <Standard Units>  (538) 
nM

>  <Standard Value>  (538) 
12.7

>  <Assay ChEMBL ID>  (538) 
CHEMBL3887070

>  <Assay Description>  (538) 
ELISA Assay: An enzyme-linked immunosorbant assay (ELISA) was used to assess TrkA kinase activity in the presence of inhibitors. Immulon 4HBX 384-well microtiter plates (Thermo part #8755) were coated with a 0.025 mg/mL solution of poly (Glu, Ala, Tyr; 6:3:1; Sigma P3899). Various concentrations of test compound, 2.5 nM TrkA (Invitrogen Corp., histidine-tagged recombinant human TrkA, cytoplasmic domain), and 500 uM ATP were incubated for 25 minutes at ambient temperature in the coated plates while shaking The assay buffer consisted of 25 mM MOPS pH 7.5, 0.005% (v/v) Triton X-100 and 5 mM MgCl2. The reaction mixture was removed from the plate by washing with PBS containing 0.1% (v/v) Tween 20. The phosphorylated reaction product was detected using 0.2 ug/mL of a phosphotyrosine specific monoclonal antibody (clone PY20) conjugated to horseradish peroxidase in conjunction with the TMB Peroxidase Substrate System (KPL).

>  <BAO Format ID>  (538) 
BAO_0000357

>  <BAO Label>  (538) 
single protein format

>  <Assay Organism>  (538) 
None

>  <Target ChEMBL ID>  (538) 
CHEMBL2815

>  <Target Name>  (538) 
Nerve growth factor receptor Trk-A

>  <Target Organism>  (538) 
Homo sapiens

>  <Target Type>  (538) 
SINGLE PROTEIN

>  <Document ChEMBL ID>  (538) 
CHEMBL3638907

>  <Source Description>  (538) 
BindingDB Database

>  <Document Journal>  (538) 
nan

>  <Document Year>  (538) 
2014.0

>  <Active>  (538) 
1.0

>  <bits>  (538) 
<rdkit.DataStructs.cDataStructs.ExplicitBitVect object at 0x00000159F5472C70>

>  <Group>  (538) 
G2

$$$$

     RDKit          2D

 29 33  0  0  0  0  0  0  0  0999 V2000
   -4.6904   -6.5871    0.0000 C   0  0  0  0  0  0  0  0  0  0  0  0
   -4.3786   -5.1199    0.0000 C   0  0  0  0  0  0  0  0  0  0  0  0
   -2.9520   -4.6564    0.0000 N   0  0  0  0  0  0  0  0  0  0  0  0
   -2.6401   -3.1891    0.0000 C   0  0  0  0  0  0  0  0  0  0  0  0
   -3.7548   -2.1855    0.0000 O   0  0  0  0  0  0  0  0  0  0  0  0
   -1.2135   -2.7256    0.0000 C   0  0  0  0  0  0  0  0  0  0  0  0
   -0.0000   -3.6073    0.0000 C   0  0  0  0  0  0  0  0  0  0  0  0
    1.2135   -2.7256    0.0000 N   0  0  0  0  0  0  0  0  0  0  0  0
    0.7500   -1.2990    0.0000 N   0  0  0  0  0  0  0  0  0  0  0  0
    1.5000    0.0000    0.0000 C   0  0  0  0  0  0  0  0  0  0  0  0
    0.7500    1.2990    0.0000 C   0  0  0  0  0  0  0  0  0  0  0  0
   -0.7500    1.2990    0.0000 C   0  0  0  0  0  0  0  0  0  0  0  0
   -1.5000    2.5981    0.0000 N   0  0  0  0  0  0  0  0  0  0  0  0
   -2.9918    2.7549    0.0000 C   0  0  0  0  0  0  0  0  0  0  0  0
   -3.3037    4.2221    0.0000 C   0  0  0  0  0  0  0  0  0  0  0  0
   -2.0046    4.9721    0.0000 C   0  0  0  0  0  0  0  0  0  0  0  0
   -0.8899    3.9684    0.0000 C   0  0  0  0  0  0  0  0  0  0  0  0
    0.5773    4.2803    0.0000 C   0  0  0  0  0  0  0  0  0  0  0  0
    1.5810    3.1655    0.0000 C   0  0  0  0  0  0  0  0  0  0  0  0
    3.0482    3.4774    0.0000 N   0  0  0  0  0  0  0  0  0  0  0  0
    3.5118    4.9040    0.0000 C   0  0  0  0  0  0  0  0  0  0  0  0
    2.5081    6.0187    0.0000 C   0  0  0  0  0  0  0  0  0  0  0  0
    2.9716    7.4453    0.0000 F   0  0  0  0  0  0  0  0  0  0  0  0
    1.0409    5.7068    0.0000 C   0  0  0  0  0  0  0  0  0  0  0  0
   -1.5000    0.0000    0.0000 N   0  0  0  0  0  0  0  0  0  0  0  0
   -0.7500   -1.2990    0.0000 C   0  0  0  0  0  0  0  0  0  0  0  0
   -5.4933   -4.1162    0.0000 C   0  0  0  0  0  0  0  0  0  0  0  0
   -6.9605   -3.8043    0.0000 C   0  0  0  0  0  0  0  0  0  0  0  0
   -5.9568   -2.6896    0.0000 C   0  0  0  0  0  0  0  0  0  0  0  0
  1  2  1  0
  2  3  1  0
  3  4  1  0
  4  5  2  0
  4  6  1  0
  6  7  1  0
  7  8  2  0
  8  9  1  0
  9 10  1  0
 10 11  2  0
 11 12  1  0
 12 13  1  0
 13 14  1  0
 14 15  1  0
 15 16  1  0
 16 17  1  0
 17 18  1  0
 18 19  2  0
 19 20  1  0
 20 21  2  0
 21 22  1  0
 22 23  1  0
 22 24  2  0
 12 25  2  0
 25 26  1  0
  2 27  1  0
 27 28  1  0
 28 29  1  0
 26  6  2  0
 29 27  1  0
 26  9  1  0
 17 13  1  0
 24 18  1  0
M  END
>  <Compound_ID>  (539) 
CHEMBL3675987

>  <Molecule Name>  (539) 
nan

>  <Molecular Weight>  (539) 
394.45

>  <AlogP>  (539) 
3.13

>  <Smiles>  (539) 
CC(NC(=O)c1cnn2ccc(N3CCCC3c3cncc(F)c3)nc12)C1CC1

>  <Standard Type>  (539) 
IC50

>  <Standard Relation>  (539) 
'='

>  <Standard Units>  (539) 
nM

>  <Standard Value>  (539) 
3.2

>  <Assay ChEMBL ID>  (539) 
CHEMBL3887070

>  <Assay Description>  (539) 
ELISA Assay: An enzyme-linked immunosorbant assay (ELISA) was used to assess TrkA kinase activity in the presence of inhibitors. Immulon 4HBX 384-well microtiter plates (Thermo part #8755) were coated with a 0.025 mg/mL solution of poly (Glu, Ala, Tyr; 6:3:1; Sigma P3899). Various concentrations of test compound, 2.5 nM TrkA (Invitrogen Corp., histidine-tagged recombinant human TrkA, cytoplasmic domain), and 500 uM ATP were incubated for 25 minutes at ambient temperature in the coated plates while shaking The assay buffer consisted of 25 mM MOPS pH 7.5, 0.005% (v/v) Triton X-100 and 5 mM MgCl2. The reaction mixture was removed from the plate by washing with PBS containing 0.1% (v/v) Tween 20. The phosphorylated reaction product was detected using 0.2 ug/mL of a phosphotyrosine specific monoclonal antibody (clone PY20) conjugated to horseradish peroxidase in conjunction with the TMB Peroxidase Substrate System (KPL).

>  <BAO Format ID>  (539) 
BAO_0000357

>  <BAO Label>  (539) 
single protein format

>  <Assay Organism>  (539) 
None

>  <Target ChEMBL ID>  (539) 
CHEMBL2815

>  <Target Name>  (539) 
Nerve growth factor receptor Trk-A

>  <Target Organism>  (539) 
Homo sapiens

>  <Target Type>  (539) 
SINGLE PROTEIN

>  <Document ChEMBL ID>  (539) 
CHEMBL3638907

>  <Source Description>  (539) 
BindingDB Database

>  <Document Journal>  (539) 
nan

>  <Document Year>  (539) 
2014.0

>  <Active>  (539) 
1.0

>  <bits>  (539) 
<rdkit.DataStructs.cDataStructs.ExplicitBitVect object at 0x00000159F5472960>

>  <Group>  (539) 
G2

$$$$

     RDKit          2D

 32 35  0  0  0  0  0  0  0  0999 V2000
   -2.9520   -4.6564    0.0000 C   0  0  0  0  0  0  0  0  0  0  0  0
   -2.6401   -3.1891    0.0000 C   0  0  0  0  0  0  0  0  0  0  0  0
   -3.7548   -2.1855    0.0000 C   0  0  0  0  0  0  0  0  0  0  0  0
   -1.2135   -2.7256    0.0000 N   0  0  0  0  0  0  0  0  0  0  0  0
   -0.0000   -3.6073    0.0000 C   0  0  0  0  0  0  0  0  0  0  0  0
    1.2135   -2.7256    0.0000 C   0  0  0  0  0  0  0  0  0  0  0  0
    2.6401   -3.1891    0.0000 C   0  0  0  0  0  0  0  0  0  0  0  0
    3.7548   -2.1855    0.0000 O   0  0  0  0  0  0  0  0  0  0  0  0
    2.9520   -4.6564    0.0000 C   0  0  0  0  0  0  0  0  0  0  0  0
    1.8373   -5.6601    0.0000 C   0  0  0  0  0  0  0  0  0  0  0  0
    2.1491   -7.1273    0.0000 C   0  0  0  0  0  0  0  0  0  0  0  0
    3.5757   -7.5908    0.0000 N   0  0  0  0  0  0  0  0  0  0  0  0
    4.6904   -6.5871    0.0000 C   0  0  0  0  0  0  0  0  0  0  0  0
    6.1170   -7.0506    0.0000 N   0  0  0  0  0  0  0  0  0  0  0  0
    6.4289   -8.5179    0.0000 C   0  0  0  0  0  0  0  0  0  0  0  0
    5.3142   -9.5216    0.0000 O   0  0  0  0  0  0  0  0  0  0  0  0
    7.8555   -8.9814    0.0000 C   0  0  0  0  0  0  0  0  0  0  0  0
    8.1673  -10.4486    0.0000 C   0  0  0  0  0  0  0  0  0  0  0  0
    7.0526  -11.4523    0.0000 C   0  0  0  0  0  0  0  0  0  0  0  0
    7.3645  -12.9195    0.0000 C   0  0  0  0  0  0  0  0  0  0  0  0
    8.7911  -13.3831    0.0000 C   0  0  0  0  0  0  0  0  0  0  0  0
    9.1029  -14.8503    0.0000 C   0  0  0  0  0  0  0  0  0  0  0  0
    9.4148  -16.3175    0.0000 N   0  0  0  0  0  0  0  0  0  0  0  0
    9.9058  -12.3794    0.0000 C   0  0  0  0  0  0  0  0  0  0  0  0
    9.5939  -10.9121    0.0000 N   0  0  0  0  0  0  0  0  0  0  0  0
    4.3786   -5.1199    0.0000 C   0  0  0  0  0  0  0  0  0  0  0  0
    0.7500   -1.2990    0.0000 C   0  0  0  0  0  0  0  0  0  0  0  0
    1.5000    0.0000    0.0000 C   0  0  0  0  0  0  0  0  0  0  0  0
    0.7500    1.2990    0.0000 N   0  0  0  0  0  0  0  0  0  0  0  0
   -0.7500    1.2990    0.0000 C   0  0  0  0  0  0  0  0  0  0  0  0
   -1.5000    0.0000    0.0000 C   0  0  0  0  0  0  0  0  0  0  0  0
   -0.7500   -1.2990    0.0000 C   0  0  0  0  0  0  0  0  0  0  0  0
  1  2  1  0
  2  3  1  0
  2  4  1  0
  4  5  1  0
  5  6  2  0
  6  7  1  0
  7  8  2  0
  7  9  1  0
  9 10  2  0
 10 11  1  0
 11 12  2  0
 12 13  1  0
 13 14  1  0
 14 15  1  0
 15 16  2  0
 15 17  1  0
 17 18  1  0
 18 19  2  0
 19 20  1  0
 20 21  2  0
 21 22  1  0
 22 23  3  0
 21 24  1  0
 24 25  2  0
 13 26  2  0
  6 27  1  0
 27 28  2  0
 28 29  1  0
 29 30  2  0
 30 31  1  0
 31 32  2  0
 32  4  1  0
 26  9  1  0
 32 27  1  0
 25 18  1  0
M  END
>  <Compound_ID>  (540) 
CHEMBL3894055

>  <Molecule Name>  (540) 
nan

>  <Molecular Weight>  (540) 
424.46

>  <AlogP>  (540) 
3.69

>  <Smiles>  (540) 
CC(C)n1cc(C(=O)c2ccnc(NC(=O)Cc3ccc(C#N)cn3)c2)c2cnccc21

>  <Standard Type>  (540) 
IC50

>  <Standard Relation>  (540) 
'='

>  <Standard Units>  (540) 
nM

>  <Standard Value>  (540) 
45.3

>  <Assay ChEMBL ID>  (540) 
CHEMBL3887111

>  <Assay Description>  (540) 
HTRF Assay: Isolated TRK Enzyme assays use the HTRF KinEASE-TK kit (Cisbio Cat#62TK0PEJ) with recombinant His-tagged cytoplasmic domains of each TRK receptor sourced from Invitrogen (see table below). This activity-assay measures the phosphorylation of tyrosine residues within a substrate from the HTRF kit which has been validated by Cisbio for a variety of tyrosine kinases including the TRK receptors.Assay Details: Invitrogen Amino FAC FAC Assay ReactionTarget Cat# acids enzyme ATP TimeTRKA PV3144 aa 441-4 nM 40 uM 35 min (NTRK1) 796 TRKB PV3616 aa 526-1 nM 1.4 uM 40 min (NTRK2) 838 TRKC PV3617 aa 510- 10 nM 15 uM 30 min (NTRK3) 8250.5 mM stock solutions of test compounds are prepared and serially diluted in 100% DMSO. A standard curve using the compound of Example 135 disclosed in WO2005/116035 of 150 uM is also prepared on each test plate. High percentage effect (HPE) is defined by 150 uM.

>  <BAO Format ID>  (540) 
BAO_0000357

>  <BAO Label>  (540) 
single protein format

>  <Assay Organism>  (540) 
None

>  <Target ChEMBL ID>  (540) 
CHEMBL2815

>  <Target Name>  (540) 
Nerve growth factor receptor Trk-A

>  <Target Organism>  (540) 
Homo sapiens

>  <Target Type>  (540) 
SINGLE PROTEIN

>  <Document ChEMBL ID>  (540) 
CHEMBL3886170

>  <Source Description>  (540) 
BindingDB Database

>  <Document Journal>  (540) 
nan

>  <Document Year>  (540) 
2015.0

>  <Active>  (540) 
1.0

>  <bits>  (540) 
<rdkit.DataStructs.cDataStructs.ExplicitBitVect object at 0x00000159F54728F0>

>  <Group>  (540) 
G2

$$$$

     RDKit          2D

 33 37  0  0  0  0  0  0  0  0999 V2000
   -2.1766   -4.6157    0.0000 C   0  0  0  0  0  0  0  0  0  0  0  0
   -2.6401   -3.1891    0.0000 C   0  0  0  0  0  0  0  0  0  0  0  0
   -3.1036   -1.7626    0.0000 C   0  0  0  0  0  0  0  0  0  0  0  0
   -4.0667   -3.6527    0.0000 C   0  0  0  0  0  0  0  0  0  0  0  0
   -1.2135   -2.7256    0.0000 N   0  0  0  0  0  0  0  0  0  0  0  0
   -0.0000   -3.6073    0.0000 C   0  0  0  0  0  0  0  0  0  0  0  0
    1.2135   -2.7256    0.0000 C   0  0  0  0  0  0  0  0  0  0  0  0
    2.6401   -3.1891    0.0000 C   0  0  0  0  0  0  0  0  0  0  0  0
    3.7548   -2.1855    0.0000 O   0  0  0  0  0  0  0  0  0  0  0  0
    2.9520   -4.6564    0.0000 C   0  0  0  0  0  0  0  0  0  0  0  0
    1.8373   -5.6601    0.0000 C   0  0  0  0  0  0  0  0  0  0  0  0
    2.1491   -7.1273    0.0000 N   0  0  0  0  0  0  0  0  0  0  0  0
    3.5757   -7.5908    0.0000 C   0  0  0  0  0  0  0  0  0  0  0  0
    4.6904   -6.5871    0.0000 C   0  0  0  0  0  0  0  0  0  0  0  0
    6.1170   -7.0506    0.0000 N   0  0  0  0  0  0  0  0  0  0  0  0
    6.4289   -8.5179    0.0000 C   0  0  0  0  0  0  0  0  0  0  0  0
    5.3142   -9.5216    0.0000 O   0  0  0  0  0  0  0  0  0  0  0  0
    7.8555   -8.9814    0.0000 C   0  0  0  0  0  0  0  0  0  0  0  0
    8.1673  -10.4486    0.0000 C   0  0  0  0  0  0  0  0  0  0  0  0
    9.5377  -11.0587    0.0000 C   0  0  0  0  0  0  0  0  0  0  0  0
    9.3809  -12.5505    0.0000 O   0  0  0  0  0  0  0  0  0  0  0  0
    7.9136  -12.8624    0.0000 C   0  0  0  0  0  0  0  0  0  0  0  0
    7.3035  -14.2327    0.0000 C   0  0  0  0  0  0  0  0  0  0  0  0
    7.4603  -15.7245    0.0000 C   0  0  0  0  0  0  0  0  0  0  0  0
    6.0900  -15.1144    0.0000 C   0  0  0  0  0  0  0  0  0  0  0  0
    7.1636  -11.5633    0.0000 N   0  0  0  0  0  0  0  0  0  0  0  0
    4.3786   -5.1199    0.0000 C   0  0  0  0  0  0  0  0  0  0  0  0
    0.7500   -1.2990    0.0000 C   0  0  0  0  0  0  0  0  0  0  0  0
    1.5000    0.0000    0.0000 C   0  0  0  0  0  0  0  0  0  0  0  0
    0.7500    1.2990    0.0000 N   0  0  0  0  0  0  0  0  0  0  0  0
   -0.7500    1.2990    0.0000 C   0  0  0  0  0  0  0  0  0  0  0  0
   -1.5000    0.0000    0.0000 N   0  0  0  0  0  0  0  0  0  0  0  0
   -0.7500   -1.2990    0.0000 C   0  0  0  0  0  0  0  0  0  0  0  0
  1  2  1  0
  2  3  1  0
  2  4  1  0
  2  5  1  0
  5  6  1  0
  6  7  2  0
  7  8  1  0
  8  9  2  0
  8 10  1  0
 10 11  2  0
 11 12  1  0
 12 13  2  0
 13 14  1  0
 14 15  1  0
 15 16  1  0
 16 17  2  0
 16 18  1  0
 18 19  1  0
 19 20  2  0
 20 21  1  0
 21 22  1  0
 22 23  1  0
 23 24  1  0
 24 25  1  0
 22 26  2  0
 14 27  2  0
  7 28  1  0
 28 29  2  0
 29 30  1  0
 30 31  2  0
 31 32  1  0
 32 33  2  0
 33  5  1  0
 27 10  1  0
 33 28  1  0
 26 19  1  0
 25 23  1  0
M  END
>  <Compound_ID>  (541) 
CHEMBL3661592

>  <Molecule Name>  (541) 
nan

>  <Molecular Weight>  (541) 
444.5

>  <AlogP>  (541) 
3.86

>  <Smiles>  (541) 
CC(C)(C)n1cc(C(=O)c2cncc(NC(=O)Cc3coc(C4CC4)n3)c2)c2cncnc21

>  <Standard Type>  (541) 
IC50

>  <Standard Relation>  (541) 
'='

>  <Standard Units>  (541) 
nM

>  <Standard Value>  (541) 
22.1

>  <Assay ChEMBL ID>  (541) 
CHEMBL3887033

>  <Assay Description>  (541) 
Enzyme Assay: Isolated TRK Enzyme assays use the HTRF KinEASE-TK kit (Cisbio Cat# 62TK0PEJ) with recombinant His-tagged cytoplasmic domains of each TRK receptor sourced from Invitrogen (see table below). This activity-assay measures the phosphorylation of tyrosine residues within a substrate from the HTRF kit which has been validated by Cisbio for a variety of tyrosine kinases including the TRK receptors. Assay details: Target:TRKA; Invitrogen Cat# PV3144; Amino acids:aa 441-796; FAC enzyme:4nM; FAC ATP:40uM; Assay Reaction Time:35min.

>  <BAO Format ID>  (541) 
BAO_0000357

>  <BAO Label>  (541) 
single protein format

>  <Assay Organism>  (541) 
None

>  <Target ChEMBL ID>  (541) 
CHEMBL2815

>  <Target Name>  (541) 
Nerve growth factor receptor Trk-A

>  <Target Organism>  (541) 
Homo sapiens

>  <Target Type>  (541) 
SINGLE PROTEIN

>  <Document ChEMBL ID>  (541) 
CHEMBL3639348

>  <Source Description>  (541) 
BindingDB Database

>  <Document Journal>  (541) 
nan

>  <Document Year>  (541) 
2014.0

>  <Active>  (541) 
1.0

>  <bits>  (541) 
<rdkit.DataStructs.cDataStructs.ExplicitBitVect object at 0x00000159F54722D0>

>  <Group>  (541) 
G2

$$$$

     RDKit          2D

 32 36  0  0  0  0  0  0  0  0999 V2000
    7.3934   -3.6905    0.0000 C   0  0  0  0  0  0  0  0  0  0  0  0
    5.9262   -3.3786    0.0000 O   0  0  0  0  0  0  0  0  0  0  0  0
    5.4627   -1.9520    0.0000 C   0  0  0  0  0  0  0  0  0  0  0  0
    6.4664   -0.8373    0.0000 N   0  0  0  0  0  0  0  0  0  0  0  0
    6.0029    0.5893    0.0000 C   0  0  0  0  0  0  0  0  0  0  0  0
    4.5356    0.9012    0.0000 C   0  0  0  0  0  0  0  0  0  0  0  0
    4.0721    2.3277    0.0000 F   0  0  0  0  0  0  0  0  0  0  0  0
    3.5320   -0.2136    0.0000 C   0  0  0  0  0  0  0  0  0  0  0  0
    3.9955   -1.6402    0.0000 C   0  0  0  0  0  0  0  0  0  0  0  0
    2.9918   -2.7549    0.0000 C   0  0  0  0  0  0  0  0  0  0  0  0
    3.3037   -4.2221    0.0000 C   0  0  0  0  0  0  0  0  0  0  0  0
    2.0046   -4.9721    0.0000 C   0  0  0  0  0  0  0  0  0  0  0  0
    0.8899   -3.9684    0.0000 C   0  0  0  0  0  0  0  0  0  0  0  0
    1.5000   -2.5981    0.0000 N   0  0  0  0  0  0  0  0  0  0  0  0
    0.7500   -1.2990    0.0000 C   0  0  0  0  0  0  0  0  0  0  0  0
    1.5000    0.0000    0.0000 C   0  0  0  0  0  0  0  0  0  0  0  0
    0.7500    1.2990    0.0000 C   0  0  0  0  0  0  0  0  0  0  0  0
   -0.7500    1.2990    0.0000 N   0  0  0  0  0  0  0  0  0  0  0  0
   -1.7537    2.4138    0.0000 N   0  0  0  0  0  0  0  0  0  0  0  0
   -3.1240    1.8037    0.0000 C   0  0  0  0  0  0  0  0  0  0  0  0
   -2.9672    0.3119    0.0000 C   0  0  0  0  0  0  0  0  0  0  0  0
   -4.0819   -0.6918    0.0000 C   0  0  0  0  0  0  0  0  0  0  0  0
   -3.7701   -2.1590    0.0000 O   0  0  0  0  0  0  0  0  0  0  0  0
   -5.5085   -0.2283    0.0000 N   0  0  0  0  0  0  0  0  0  0  0  0
   -6.6232   -1.2320    0.0000 C   0  0  0  0  0  0  0  0  0  0  0  0
   -6.4664   -2.7238    0.0000 C   0  0  0  0  0  0  0  0  0  0  0  0
   -7.8368   -3.3339    0.0000 C   0  0  0  0  0  0  0  0  0  0  0  0
   -8.1486   -4.8011    0.0000 C   0  0  0  0  0  0  0  0  0  0  0  0
   -8.8405   -2.2192    0.0000 N   0  0  0  0  0  0  0  0  0  0  0  0
   -8.0905   -0.9201    0.0000 N   0  0  0  0  0  0  0  0  0  0  0  0
   -1.5000    0.0000    0.0000 C   0  0  0  0  0  0  0  0  0  0  0  0
   -0.7500   -1.2990    0.0000 N   0  0  0  0  0  0  0  0  0  0  0  0
  1  2  1  0
  2  3  1  0
  3  4  2  0
  4  5  1  0
  5  6  2  0
  6  7  1  0
  6  8  1  0
  8  9  2  0
  9 10  1  0
 10 11  1  0
 11 12  1  0
 12 13  1  0
 13 14  1  0
 14 15  1  0
 15 16  1  0
 16 17  2  0
 17 18  1  0
 18 19  1  0
 19 20  2  0
 20 21  1  0
 21 22  1  0
 22 23  2  0
 22 24  1  0
 24 25  1  0
 25 26  2  0
 26 27  1  0
 27 28  1  0
 27 29  2  0
 29 30  1  0
 21 31  2  0
 31 32  1  0
  9  3  1  0
 14 10  1  0
 32 15  2  0
 31 18  1  0
 30 25  1  0
M  END
>  <Compound_ID>  (542) 
CHEMBL3676102

>  <Molecule Name>  (542) 
nan

>  <Molecular Weight>  (542) 
436.45

>  <AlogP>  (542) 
2.9

>  <Smiles>  (542) 
COc1ncc(F)cc1C1CCCN1c1ccn2ncc(C(=O)Nc3cc(C)n[nH]3)c2n1

>  <Standard Type>  (542) 
IC50

>  <Standard Relation>  (542) 
'='

>  <Standard Units>  (542) 
nM

>  <Standard Value>  (542) 
11.3

>  <Assay ChEMBL ID>  (542) 
CHEMBL3887070

>  <Assay Description>  (542) 
ELISA Assay: An enzyme-linked immunosorbant assay (ELISA) was used to assess TrkA kinase activity in the presence of inhibitors. Immulon 4HBX 384-well microtiter plates (Thermo part #8755) were coated with a 0.025 mg/mL solution of poly (Glu, Ala, Tyr; 6:3:1; Sigma P3899). Various concentrations of test compound, 2.5 nM TrkA (Invitrogen Corp., histidine-tagged recombinant human TrkA, cytoplasmic domain), and 500 uM ATP were incubated for 25 minutes at ambient temperature in the coated plates while shaking The assay buffer consisted of 25 mM MOPS pH 7.5, 0.005% (v/v) Triton X-100 and 5 mM MgCl2. The reaction mixture was removed from the plate by washing with PBS containing 0.1% (v/v) Tween 20. The phosphorylated reaction product was detected using 0.2 ug/mL of a phosphotyrosine specific monoclonal antibody (clone PY20) conjugated to horseradish peroxidase in conjunction with the TMB Peroxidase Substrate System (KPL).

>  <BAO Format ID>  (542) 
BAO_0000357

>  <BAO Label>  (542) 
single protein format

>  <Assay Organism>  (542) 
None

>  <Target ChEMBL ID>  (542) 
CHEMBL2815

>  <Target Name>  (542) 
Nerve growth factor receptor Trk-A

>  <Target Organism>  (542) 
Homo sapiens

>  <Target Type>  (542) 
SINGLE PROTEIN

>  <Document ChEMBL ID>  (542) 
CHEMBL3638907

>  <Source Description>  (542) 
BindingDB Database

>  <Document Journal>  (542) 
nan

>  <Document Year>  (542) 
2014.0

>  <Active>  (542) 
1.0

>  <bits>  (542) 
<rdkit.DataStructs.cDataStructs.ExplicitBitVect object at 0x00000159F5471FC0>

>  <Group>  (542) 
G2

$$$$

     RDKit          2D

 35 39  0  0  0  0  0  0  0  0999 V2000
   -2.1766   -4.6157    0.0000 C   0  0  0  0  0  0  0  0  0  0  0  0
   -2.6401   -3.1891    0.0000 C   0  0  0  0  0  0  0  0  0  0  0  0
   -3.1036   -1.7626    0.0000 C   0  0  0  0  0  0  0  0  0  0  0  0
   -4.0667   -3.6527    0.0000 C   0  0  0  0  0  0  0  0  0  0  0  0
   -1.2135   -2.7256    0.0000 N   0  0  0  0  0  0  0  0  0  0  0  0
   -0.0000   -3.6073    0.0000 C   0  0  0  0  0  0  0  0  0  0  0  0
    1.2135   -2.7256    0.0000 C   0  0  0  0  0  0  0  0  0  0  0  0
    2.6401   -3.1891    0.0000 C   0  0  0  0  0  0  0  0  0  0  0  0
    3.7548   -2.1855    0.0000 O   0  0  0  0  0  0  0  0  0  0  0  0
    2.9520   -4.6564    0.0000 C   0  0  0  0  0  0  0  0  0  0  0  0
    1.8373   -5.6601    0.0000 C   0  0  0  0  0  0  0  0  0  0  0  0
    2.1491   -7.1273    0.0000 N   0  0  0  0  0  0  0  0  0  0  0  0
    3.5757   -7.5908    0.0000 C   0  0  0  0  0  0  0  0  0  0  0  0
    4.6904   -6.5871    0.0000 C   0  0  0  0  0  0  0  0  0  0  0  0
    6.1170   -7.0506    0.0000 N   0  0  0  0  0  0  0  0  0  0  0  0
    6.4289   -8.5179    0.0000 C   0  0  0  0  0  0  0  0  0  0  0  0
    5.3142   -9.5216    0.0000 O   0  0  0  0  0  0  0  0  0  0  0  0
    7.8555   -8.9814    0.0000 C   0  0  0  0  0  0  0  0  0  0  0  0
    8.1673  -10.4486    0.0000 C   0  0  0  0  0  0  0  0  0  0  0  0
    7.1636  -11.5633    0.0000 N   0  0  0  0  0  0  0  0  0  0  0  0
    7.9136  -12.8624    0.0000 C   0  0  0  0  0  0  0  0  0  0  0  0
    7.4501  -14.2890    0.0000 C   0  0  0  0  0  0  0  0  0  0  0  0
    8.4538  -15.4037    0.0000 C   0  0  0  0  0  0  0  0  0  0  0  0
    9.9210  -15.0918    0.0000 C   0  0  0  0  0  0  0  0  0  0  0  0
   10.3846  -13.6652    0.0000 C   0  0  0  0  0  0  0  0  0  0  0  0
    9.3809  -12.5505    0.0000 C   0  0  0  0  0  0  0  0  0  0  0  0
    9.5377  -11.0587    0.0000 N   0  0  0  0  0  0  0  0  0  0  0  0
    4.3786   -5.1199    0.0000 C   0  0  0  0  0  0  0  0  0  0  0  0
    0.7500   -1.2990    0.0000 C   0  0  0  0  0  0  0  0  0  0  0  0
    1.5000    0.0000    0.0000 C   0  0  0  0  0  0  0  0  0  0  0  0
    0.7500    1.2990    0.0000 N   0  0  0  0  0  0  0  0  0  0  0  0
   -0.7500    1.2990    0.0000 C   0  0  0  0  0  0  0  0  0  0  0  0
   -1.5000    2.5981    0.0000 N   0  0  0  0  0  0  0  0  0  0  0  0
   -1.5000    0.0000    0.0000 N   0  0  0  0  0  0  0  0  0  0  0  0
   -0.7500   -1.2990    0.0000 C   0  0  0  0  0  0  0  0  0  0  0  0
  1  2  1  0
  2  3  1  0
  2  4  1  0
  2  5  1  0
  5  6  1  0
  6  7  2  0
  7  8  1  0
  8  9  2  0
  8 10  1  0
 10 11  2  0
 11 12  1  0
 12 13  2  0
 13 14  1  0
 14 15  1  0
 15 16  1  0
 16 17  2  0
 16 18  1  0
 18 19  1  0
 19 20  2  0
 20 21  1  0
 21 22  2  0
 22 23  1  0
 23 24  2  0
 24 25  1  0
 25 26  2  0
 26 27  1  0
 14 28  2  0
  7 29  1  0
 29 30  2  0
 30 31  1  0
 31 32  2  0
 32 33  1  0
 32 34  1  0
 34 35  2  0
 35  5  1  0
 28 10  1  0
 35 29  1  0
 27 19  1  0
 26 21  1  0
M  END
>  <Compound_ID>  (543) 
CHEMBL3671404

>  <Molecule Name>  (543) 
nan

>  <Molecular Weight>  (543) 
468.52

>  <AlogP>  (543) 
3.45

>  <Smiles>  (543) 
CC(C)(C)n1cc(C(=O)c2cncc(NC(=O)Cc3nc4ccccc4[nH]3)c2)c2cnc(N)nc21

>  <Standard Type>  (543) 
IC50

>  <Standard Relation>  (543) 
'='

>  <Standard Units>  (543) 
nM

>  <Standard Value>  (543) 
2.25

>  <Assay ChEMBL ID>  (543) 
CHEMBL3887033

>  <Assay Description>  (543) 
Enzyme Assay: Isolated TRK Enzyme assays use the HTRF KinEASE-TK kit (Cisbio Cat# 62TK0PEJ) with recombinant His-tagged cytoplasmic domains of each TRK receptor sourced from Invitrogen (see table below). This activity-assay measures the phosphorylation of tyrosine residues within a substrate from the HTRF kit which has been validated by Cisbio for a variety of tyrosine kinases including the TRK receptors. Assay details: Target:TRKA; Invitrogen Cat# PV3144; Amino acids:aa 441-796; FAC enzyme:4nM; FAC ATP:40uM; Assay Reaction Time:35min.

>  <BAO Format ID>  (543) 
BAO_0000357

>  <BAO Label>  (543) 
single protein format

>  <Assay Organism>  (543) 
None

>  <Target ChEMBL ID>  (543) 
CHEMBL2815

>  <Target Name>  (543) 
Nerve growth factor receptor Trk-A

>  <Target Organism>  (543) 
Homo sapiens

>  <Target Type>  (543) 
SINGLE PROTEIN

>  <Document ChEMBL ID>  (543) 
CHEMBL3639348

>  <Source Description>  (543) 
BindingDB Database

>  <Document Journal>  (543) 
nan

>  <Document Year>  (543) 
2014.0

>  <Active>  (543) 
1.0

>  <bits>  (543) 
<rdkit.DataStructs.cDataStructs.ExplicitBitVect object at 0x00000159F5471EE0>

>  <Group>  (543) 
G2

$$$$

     RDKit          2D

 31 34  0  0  0  0  0  0  0  0999 V2000
   -0.7500   -3.8971    0.0000 C   0  0  0  0  0  0  0  0  0  0  0  0
    0.7500   -3.8971    0.0000 C   0  0  0  0  0  0  0  0  0  0  0  0
    1.5000   -2.5981    0.0000 N   0  0  0  0  0  0  0  0  0  0  0  0
    0.7500   -1.2990    0.0000 C   0  0  0  0  0  0  0  0  0  0  0  0
    1.5000    0.0000    0.0000 C   0  0  0  0  0  0  0  0  0  0  0  0
    0.7500    1.2990    0.0000 C   0  0  0  0  0  0  0  0  0  0  0  0
   -0.7500    1.2990    0.0000 N   0  0  0  0  0  0  0  0  0  0  0  0
   -1.7537    2.4138    0.0000 N   0  0  0  0  0  0  0  0  0  0  0  0
   -3.1240    1.8037    0.0000 C   0  0  0  0  0  0  0  0  0  0  0  0
   -2.9672    0.3119    0.0000 C   0  0  0  0  0  0  0  0  0  0  0  0
   -4.0819   -0.6918    0.0000 N   0  0  0  0  0  0  0  0  0  0  0  0
   -5.5085   -0.2283    0.0000 C   0  0  0  0  0  0  0  0  0  0  0  0
   -5.8204    1.2389    0.0000 O   0  0  0  0  0  0  0  0  0  0  0  0
   -6.6232   -1.2320    0.0000 N   0  0  0  0  0  0  0  0  0  0  0  0
   -8.0498   -0.7685    0.0000 C   0  0  0  0  0  0  0  0  0  0  0  0
   -9.1645   -1.7722    0.0000 C   0  0  0  0  0  0  0  0  0  0  0  0
   -8.8527   -3.2394    0.0000 C   0  0  0  0  0  0  0  0  0  0  0  0
   -7.4261   -3.7029    0.0000 C   0  0  0  0  0  0  0  0  0  0  0  0
   -7.1142   -5.1701    0.0000 C   0  0  0  0  0  0  0  0  0  0  0  0
   -8.2289   -6.1738    0.0000 O   0  0  0  0  0  0  0  0  0  0  0  0
   -6.3114   -2.6992    0.0000 C   0  0  0  0  0  0  0  0  0  0  0  0
   -1.5000    0.0000    0.0000 C   0  0  0  0  0  0  0  0  0  0  0  0
   -0.7500   -1.2990    0.0000 N   0  0  0  0  0  0  0  0  0  0  0  0
    1.5000   -5.1962    0.0000 C   0  0  0  0  0  0  0  0  0  0  0  0
    3.0000   -5.1962    0.0000 C   0  0  0  0  0  0  0  0  0  0  0  0
    3.7500   -6.4952    0.0000 C   0  0  0  0  0  0  0  0  0  0  0  0
    5.2500   -6.4952    0.0000 F   0  0  0  0  0  0  0  0  0  0  0  0
    3.0000   -7.7942    0.0000 C   0  0  0  0  0  0  0  0  0  0  0  0
    1.5000   -7.7942    0.0000 C   0  0  0  0  0  0  0  0  0  0  0  0
    0.7500   -6.4952    0.0000 C   0  0  0  0  0  0  0  0  0  0  0  0
   -0.7500   -6.4952    0.0000 F   0  0  0  0  0  0  0  0  0  0  0  0
  2  1  1  1
  2  3  1  0
  3  4  1  0
  4  5  1  0
  5  6  2  0
  6  7  1  0
  7  8  1  0
  8  9  2  0
  9 10  1  0
 10 11  1  0
 11 12  1  0
 12 13  2  0
 12 14  1  0
 14 15  1  0
 15 16  1  0
 16 17  1  0
 17 18  1  0
 18 19  1  0
 19 20  1  0
 18 21  1  0
 10 22  2  0
 22 23  1  0
  2 24  1  0
 24 25  2  0
 25 26  1  0
 26 27  1  0
 26 28  2  0
 28 29  1  0
 29 30  2  0
 30 31  1  0
 23  4  2  0
 30 24  1  0
 22  7  1  0
 21 14  1  0
M  END
>  <Compound_ID>  (544) 
CHEMBL4762176

>  <Molecule Name>  (544) 
nan

>  <Molecular Weight>  (544) 
430.46

>  <AlogP>  (544) 
3.42

>  <Smiles>  (544) 
C[C@@H](Nc1ccn2ncc(NC(=O)N3CCCC(CO)C3)c2n1)c1cc(F)ccc1F

>  <Standard Type>  (544) 
IC50

>  <Standard Relation>  (544) 
'='

>  <Standard Units>  (544) 
nM

>  <Standard Value>  (544) 
15.0

>  <Assay ChEMBL ID>  (544) 
CHEMBL4678168

>  <Assay Description>  (544) 
Inhibition of Trk-A (unknown origin)

>  <BAO Format ID>  (544) 
BAO_0000357

>  <BAO Label>  (544) 
single protein format

>  <Assay Organism>  (544) 
Homo sapiens

>  <Target ChEMBL ID>  (544) 
CHEMBL2815

>  <Target Name>  (544) 
Nerve growth factor receptor Trk-A

>  <Target Organism>  (544) 
Homo sapiens

>  <Target Type>  (544) 
SINGLE PROTEIN

>  <Document ChEMBL ID>  (544) 
CHEMBL4673327

>  <Source Description>  (544) 
Scientific Literature

>  <Document Journal>  (544) 
Bioorg Med Chem Lett

>  <Document Year>  (544) 
2021.0

>  <Active>  (544) 
1.0

>  <bits>  (544) 
<rdkit.DataStructs.cDataStructs.ExplicitBitVect object at 0x00000159F5471E70>

>  <Group>  (544) 
G2

$$$$

     RDKit          2D

 30 32  0  0  0  0  0  0  0  0999 V2000
    5.2500   -1.2990    0.0000 C   0  0  0  0  0  0  0  0  0  0  0  0
    3.7500   -1.2990    0.0000 N   0  0  0  0  0  0  0  0  0  0  0  0
    3.0000    0.0000    0.0000 C   0  0  0  0  0  0  0  0  0  0  0  0
    3.7500    1.2990    0.0000 O   0  0  0  0  0  0  0  0  0  0  0  0
    1.5000    0.0000    0.0000 C   0  0  0  0  0  0  0  0  0  0  0  0
    0.7500   -1.2990    0.0000 C   0  0  0  0  0  0  0  0  0  0  0  0
   -0.7500   -1.2990    0.0000 C   0  0  0  0  0  0  0  0  0  0  0  0
   -1.5000    0.0000    0.0000 C   0  0  0  0  0  0  0  0  0  0  0  0
   -3.0000    0.0000    0.0000 N   0  0  0  0  0  0  0  0  0  0  0  0
   -3.7500    1.2990    0.0000 C   0  0  0  0  0  0  0  0  0  0  0  0
   -3.0000    2.5981    0.0000 N   0  0  0  0  0  0  0  0  0  0  0  0
   -3.7500    3.8971    0.0000 C   0  0  0  0  0  0  0  0  0  0  0  0
   -5.2500    3.8971    0.0000 C   0  0  0  0  0  0  0  0  0  0  0  0
   -6.0000    5.1962    0.0000 C   0  0  0  0  0  0  0  0  0  0  0  0
   -6.7500    6.4952    0.0000 F   0  0  0  0  0  0  0  0  0  0  0  0
   -4.7010    5.9462    0.0000 F   0  0  0  0  0  0  0  0  0  0  0  0
   -7.2990    4.4462    0.0000 F   0  0  0  0  0  0  0  0  0  0  0  0
   -6.0000    2.5981    0.0000 C   0  0  0  0  0  0  0  0  0  0  0  0
   -7.5000    2.5981    0.0000 N   0  0  0  0  0  0  0  0  0  0  0  0
   -8.2500    1.2990    0.0000 C   0  0  0  0  0  0  0  0  0  0  0  0
   -9.7500    1.2990    0.0000 C   0  0  0  0  0  0  0  0  0  0  0  0
  -10.5000    2.5981    0.0000 C   0  0  0  0  0  0  0  0  0  0  0  0
  -12.0000    2.5981    0.0000 C   0  0  0  0  0  0  0  0  0  0  0  0
  -12.7500    1.2990    0.0000 C   0  0  0  0  0  0  0  0  0  0  0  0
  -12.0000    0.0000    0.0000 C   0  0  0  0  0  0  0  0  0  0  0  0
  -10.5000    0.0000    0.0000 C   0  0  0  0  0  0  0  0  0  0  0  0
   -9.7500   -1.2990    0.0000 Cl  0  0  0  0  0  0  0  0  0  0  0  0
   -5.2500    1.2990    0.0000 N   0  0  0  0  0  0  0  0  0  0  0  0
   -0.7500    1.2990    0.0000 C   0  0  0  0  0  0  0  0  0  0  0  0
    0.7500    1.2990    0.0000 C   0  0  0  0  0  0  0  0  0  0  0  0
  1  2  1  0
  2  3  1  0
  3  4  2  0
  3  5  1  0
  5  6  2  0
  6  7  1  0
  7  8  2  0
  8  9  1  0
  9 10  1  0
 10 11  2  0
 11 12  1  0
 12 13  2  0
 13 14  1  0
 14 15  1  0
 14 16  1  0
 14 17  1  0
 13 18  1  0
 18 19  1  0
 19 20  1  0
 20 21  1  0
 21 22  2  0
 22 23  1  0
 23 24  2  0
 24 25  1  0
 25 26  2  0
 26 27  1  0
 18 28  2  0
  8 29  1  0
 29 30  2  0
 30  5  1  0
 28 10  1  0
 26 21  1  0
M  END
>  <Compound_ID>  (545) 
CHEMBL4850588

>  <Molecule Name>  (545) 
nan

>  <Molecular Weight>  (545) 
435.84

>  <AlogP>  (545) 
4.86

>  <Smiles>  (545) 
CNC(=O)c1ccc(Nc2ncc(C(F)(F)F)c(NCc3ccccc3Cl)n2)cc1

>  <Standard Type>  (545) 
IC50

>  <Standard Relation>  (545) 
'='

>  <Standard Units>  (545) 
nM

>  <Standard Value>  (545) 
31.54

>  <Assay ChEMBL ID>  (545) 
CHEMBL4824344

>  <Assay Description>  (545) 
Inhibition of TRKA (unknown origin) measured after 40 mins by HTRF

>  <BAO Format ID>  (545) 
BAO_0000357

>  <BAO Label>  (545) 
single protein format

>  <Assay Organism>  (545) 
Homo sapiens

>  <Target ChEMBL ID>  (545) 
CHEMBL2815

>  <Target Name>  (545) 
Nerve growth factor receptor Trk-A

>  <Target Organism>  (545) 
Homo sapiens

>  <Target Type>  (545) 
SINGLE PROTEIN

>  <Document ChEMBL ID>  (545) 
CHEMBL4823267

>  <Source Description>  (545) 
Scientific Literature

>  <Document Journal>  (545) 
Eur J Med Chem

>  <Document Year>  (545) 
2021.0

>  <Active>  (545) 
1.0

>  <bits>  (545) 
<rdkit.DataStructs.cDataStructs.ExplicitBitVect object at 0x00000159F54718C0>

>  <Group>  (545) 
G2

$$$$

     RDKit          2D

 37 40  0  0  0  0  0  0  0  0999 V2000
   -8.3172   -3.2650    0.0000 C   0  0  0  0  0  0  0  0  0  0  0  0
   -9.6162   -4.0150    0.0000 C   0  0  0  0  0  0  0  0  0  0  0  0
  -10.9866   -3.4049    0.0000 C   0  0  0  0  0  0  0  0  0  0  0  0
  -11.9903   -4.5196    0.0000 C   0  0  0  0  0  0  0  0  0  0  0  0
  -13.4820   -4.3628    0.0000 C   0  0  0  0  0  0  0  0  0  0  0  0
  -14.9738   -4.2060    0.0000 F   0  0  0  0  0  0  0  0  0  0  0  0
  -13.3252   -2.8710    0.0000 F   0  0  0  0  0  0  0  0  0  0  0  0
  -13.6388   -5.8546    0.0000 F   0  0  0  0  0  0  0  0  0  0  0  0
  -11.2403   -5.8186    0.0000 N   0  0  0  0  0  0  0  0  0  0  0  0
   -9.7730   -5.5068    0.0000 N   0  0  0  0  0  0  0  0  0  0  0  0
   -8.6583   -6.5105    0.0000 C   0  0  0  0  0  0  0  0  0  0  0  0
   -7.2317   -6.0469    0.0000 C   0  0  0  0  0  0  0  0  0  0  0  0
   -6.9199   -4.5797    0.0000 O   0  0  0  0  0  0  0  0  0  0  0  0
   -6.1170   -7.0506    0.0000 N   0  0  0  0  0  0  0  0  0  0  0  0
   -4.6904   -6.5871    0.0000 C   0  0  0  0  0  0  0  0  0  0  0  0
   -3.5757   -7.5908    0.0000 C   0  0  0  0  0  0  0  0  0  0  0  0
   -2.1491   -7.1273    0.0000 N   0  0  0  0  0  0  0  0  0  0  0  0
   -1.8373   -5.6601    0.0000 C   0  0  0  0  0  0  0  0  0  0  0  0
   -2.9520   -4.6564    0.0000 C   0  0  0  0  0  0  0  0  0  0  0  0
   -2.6401   -3.1891    0.0000 C   0  0  0  0  0  0  0  0  0  0  0  0
   -3.7548   -2.1855    0.0000 O   0  0  0  0  0  0  0  0  0  0  0  0
   -1.2135   -2.7256    0.0000 C   0  0  0  0  0  0  0  0  0  0  0  0
   -0.0000   -3.6073    0.0000 C   0  0  0  0  0  0  0  0  0  0  0  0
    1.2135   -2.7256    0.0000 N   0  0  0  0  0  0  0  0  0  0  0  0
    2.6401   -3.1891    0.0000 C   0  0  0  0  0  0  0  0  0  0  0  0
    2.1766   -4.6157    0.0000 C   0  0  0  0  0  0  0  0  0  0  0  0
    3.1036   -1.7626    0.0000 C   0  0  0  0  0  0  0  0  0  0  0  0
    4.0667   -3.6527    0.0000 C   0  0  0  0  0  0  0  0  0  0  0  0
    5.1814   -2.6490    0.0000 O   0  0  0  0  0  0  0  0  0  0  0  0
    0.7500   -1.2990    0.0000 C   0  0  0  0  0  0  0  0  0  0  0  0
    1.5000    0.0000    0.0000 C   0  0  0  0  0  0  0  0  0  0  0  0
    3.0000    0.0000    0.0000 F   0  0  0  0  0  0  0  0  0  0  0  0
    0.7500    1.2990    0.0000 C   0  0  0  0  0  0  0  0  0  0  0  0
   -0.7500    1.2990    0.0000 N   0  0  0  0  0  0  0  0  0  0  0  0
   -1.5000    0.0000    0.0000 C   0  0  0  0  0  0  0  0  0  0  0  0
   -0.7500   -1.2990    0.0000 C   0  0  0  0  0  0  0  0  0  0  0  0
   -4.3786   -5.1199    0.0000 C   0  0  0  0  0  0  0  0  0  0  0  0
  1  2  1  0
  2  3  2  0
  3  4  1  0
  4  5  1  0
  5  6  1  0
  5  7  1  0
  5  8  1  0
  4  9  2  0
  9 10  1  0
 10 11  1  0
 11 12  1  0
 12 13  2  0
 12 14  1  0
 14 15  1  0
 15 16  2  0
 16 17  1  0
 17 18  2  0
 18 19  1  0
 19 20  1  0
 20 21  2  0
 20 22  1  0
 22 23  2  0
 23 24  1  0
 24 25  1  0
 25 26  1  0
 25 27  1  0
 25 28  1  0
 28 29  1  0
 24 30  1  0
 30 31  2  0
 31 32  1  0
 31 33  1  0
 33 34  2  0
 34 35  1  0
 35 36  2  0
 19 37  2  0
 10  2  1  0
 37 15  1  0
 36 22  1  0
 36 30  1  0
M  END
>  <Compound_ID>  (546) 
CHEMBL3928158

>  <Molecule Name>  (546) 
nan

>  <Molecular Weight>  (546) 
518.47

>  <AlogP>  (546) 
3.69

>  <Smiles>  (546) 
Cc1cc(C(F)(F)F)nn1CC(=O)Nc1cncc(C(=O)c2cn(C(C)(C)CO)c3c(F)cncc23)c1

>  <Standard Type>  (546) 
IC50

>  <Standard Relation>  (546) 
'='

>  <Standard Units>  (546) 
nM

>  <Standard Value>  (546) 
6.32

>  <Assay ChEMBL ID>  (546) 
CHEMBL3887111

>  <Assay Description>  (546) 
HTRF Assay: Isolated TRK Enzyme assays use the HTRF KinEASE-TK kit (Cisbio Cat#62TK0PEJ) with recombinant His-tagged cytoplasmic domains of each TRK receptor sourced from Invitrogen (see table below). This activity-assay measures the phosphorylation of tyrosine residues within a substrate from the HTRF kit which has been validated by Cisbio for a variety of tyrosine kinases including the TRK receptors.Assay Details: Invitrogen Amino FAC FAC Assay ReactionTarget Cat# acids enzyme ATP TimeTRKA PV3144 aa 441-4 nM 40 uM 35 min (NTRK1) 796 TRKB PV3616 aa 526-1 nM 1.4 uM 40 min (NTRK2) 838 TRKC PV3617 aa 510- 10 nM 15 uM 30 min (NTRK3) 8250.5 mM stock solutions of test compounds are prepared and serially diluted in 100% DMSO. A standard curve using the compound of Example 135 disclosed in WO2005/116035 of 150 uM is also prepared on each test plate. High percentage effect (HPE) is defined by 150 uM.

>  <BAO Format ID>  (546) 
BAO_0000357

>  <BAO Label>  (546) 
single protein format

>  <Assay Organism>  (546) 
None

>  <Target ChEMBL ID>  (546) 
CHEMBL2815

>  <Target Name>  (546) 
Nerve growth factor receptor Trk-A

>  <Target Organism>  (546) 
Homo sapiens

>  <Target Type>  (546) 
SINGLE PROTEIN

>  <Document ChEMBL ID>  (546) 
CHEMBL3886170

>  <Source Description>  (546) 
BindingDB Database

>  <Document Journal>  (546) 
nan

>  <Document Year>  (546) 
2015.0

>  <Active>  (546) 
1.0

>  <bits>  (546) 
<rdkit.DataStructs.cDataStructs.ExplicitBitVect object at 0x00000159F5471700>

>  <Group>  (546) 
G2

$$$$

     RDKit          2D

 32 36  0  0  0  0  0  0  0  0999 V2000
   -8.0346   -3.5760    0.0000 O   0  0  0  0  0  0  0  0  0  0  0  0
   -6.9199   -4.5797    0.0000 C   0  0  0  0  0  0  0  0  0  0  0  0
   -5.4933   -4.1162    0.0000 C   0  0  0  0  0  0  0  0  0  0  0  0
   -4.3786   -5.1199    0.0000 N   0  0  0  0  0  0  0  0  0  0  0  0
   -2.9520   -4.6564    0.0000 C   0  0  0  0  0  0  0  0  0  0  0  0
   -1.8373   -5.6601    0.0000 O   0  0  0  0  0  0  0  0  0  0  0  0
   -2.6401   -3.1891    0.0000 N   0  0  0  0  0  0  0  0  0  0  0  0
   -1.2135   -2.7256    0.0000 C   0  0  0  0  0  0  0  0  0  0  0  0
   -0.0000   -3.6073    0.0000 C   0  0  0  0  0  0  0  0  0  0  0  0
    1.2135   -2.7256    0.0000 N   0  0  0  0  0  0  0  0  0  0  0  0
    0.7500   -1.2990    0.0000 C   0  0  0  0  0  0  0  0  0  0  0  0
    1.5000    0.0000    0.0000 C   0  0  0  0  0  0  0  0  0  0  0  0
    0.7500    1.2990    0.0000 C   0  0  0  0  0  0  0  0  0  0  0  0
   -0.7500    1.2990    0.0000 C   0  0  0  0  0  0  0  0  0  0  0  0
   -1.5000    2.5981    0.0000 N   0  0  0  0  0  0  0  0  0  0  0  0
   -2.9918    2.7549    0.0000 C   0  0  0  0  0  0  0  0  0  0  0  0
   -3.3037    4.2221    0.0000 C   0  0  0  0  0  0  0  0  0  0  0  0
   -2.0046    4.9721    0.0000 C   0  0  0  0  0  0  0  0  0  0  0  0
   -0.8899    3.9684    0.0000 C   0  0  0  0  0  0  0  0  0  0  0  0
    0.5773    4.2803    0.0000 C   0  0  0  0  0  0  0  0  0  0  0  0
    1.5810    3.1655    0.0000 C   0  0  0  0  0  0  0  0  0  0  0  0
    3.0482    3.4774    0.0000 C   0  0  0  0  0  0  0  0  0  0  0  0
    4.0519    2.3627    0.0000 F   0  0  0  0  0  0  0  0  0  0  0  0
    3.5118    4.9040    0.0000 C   0  0  0  0  0  0  0  0  0  0  0  0
    2.5081    6.0187    0.0000 C   0  0  0  0  0  0  0  0  0  0  0  0
    1.0409    5.7068    0.0000 C   0  0  0  0  0  0  0  0  0  0  0  0
    0.0372    6.8216    0.0000 F   0  0  0  0  0  0  0  0  0  0  0  0
   -1.5000    0.0000    0.0000 N   0  0  0  0  0  0  0  0  0  0  0  0
   -0.7500   -1.2990    0.0000 N   0  0  0  0  0  0  0  0  0  0  0  0
   -4.6904   -6.5871    0.0000 C   0  0  0  0  0  0  0  0  0  0  0  0
   -6.1170   -7.0506    0.0000 C   0  0  0  0  0  0  0  0  0  0  0  0
   -7.2317   -6.0469    0.0000 N   0  0  0  0  0  0  0  0  0  0  0  0
  1  2  2  0
  2  3  1  0
  3  4  1  0
  4  5  1  0
  5  6  2  0
  5  7  1  0
  7  8  1  0
  8  9  2  0
  9 10  1  0
 10 11  2  0
 11 12  1  0
 12 13  2  0
 13 14  1  0
 14 15  1  0
 15 16  1  0
 16 17  1  0
 17 18  1  0
 18 19  1  0
 19 20  1  6
 20 21  2  0
 21 22  1  0
 22 23  1  0
 22 24  2  0
 24 25  1  0
 25 26  2  0
 26 27  1  0
 14 28  2  0
 28 29  1  0
  4 30  1  0
 30 31  1  0
 31 32  1  0
 32  2  1  0
 29  8  1  0
 29 11  1  0
 19 15  1  0
 26 20  1  0
M  END
>  <Compound_ID>  (547) 
CHEMBL4108128

>  <Molecule Name>  (547) 
nan

>  <Molecular Weight>  (547) 
441.44

>  <AlogP>  (547) 
2.31

>  <Smiles>  (547) 
O=C1CN(C(=O)Nc2cnc3ccc(N4CCC[C@@H]4c4cc(F)ccc4F)nn23)CCN1

>  <Standard Type>  (547) 
IC50

>  <Standard Relation>  (547) 
'='

>  <Standard Units>  (547) 
nM

>  <Standard Value>  (547) 
26.2

>  <Assay ChEMBL ID>  (547) 
CHEMBL3887826

>  <Assay Description>  (547) 
ELISA Assay: An enzyme-linked immunosorbant assay (ELISA) was used to assess TrkA kinase activity in the presence of inhibitors. Immulon 4HBX 384-well microtiter plates (Thermo part #8755) were coated with a 0.025 mg/mL solution of poly (Glu, Ala, Tyr; 6:3:1; Sigma P3899). Various concentrations of test compound, 2.5 nM TrkA (Invitrogen Corp., histidine-tagged recombinant human TrkA, cytoplasmic domain), and 500 uM ATP were incubated for 25 minutes at ambient temperature in the coated plates while shaking. The assay buffer consisted of 25 mM MOPS pH 7.5, 0.005% (v/v) Triton X-100 and 5 mM MgCl2. The reaction mixture was removed from the plate by washing with PBS containing 0.1% (v/v) Tween 20. The phosphorylated reaction product was detected using 0.2 ug/mL of a phosphotyrosine specific monoclonal antibody (clone PY20) conjugated to horseradish peroxidase in conjunction with the TMB Peroxidase Substrate System (KPL).

>  <BAO Format ID>  (547) 
BAO_0000357

>  <BAO Label>  (547) 
single protein format

>  <Assay Organism>  (547) 
None

>  <Target ChEMBL ID>  (547) 
CHEMBL2815

>  <Target Name>  (547) 
Nerve growth factor receptor Trk-A

>  <Target Organism>  (547) 
Homo sapiens

>  <Target Type>  (547) 
SINGLE PROTEIN

>  <Document ChEMBL ID>  (547) 
CHEMBL3886465

>  <Source Description>  (547) 
BindingDB Database

>  <Document Journal>  (547) 
nan

>  <Document Year>  (547) 
2016.0

>  <Active>  (547) 
1.0

>  <bits>  (547) 
<rdkit.DataStructs.cDataStructs.ExplicitBitVect object at 0x00000159F5471230>

>  <Group>  (547) 
G2

$$$$

     RDKit          2D

 31 34  0  0  0  0  0  0  0  0999 V2000
   -2.9520   -4.6564    0.0000 C   0  0  0  0  0  0  0  0  0  0  0  0
   -2.6401   -3.1891    0.0000 C   0  0  0  0  0  0  0  0  0  0  0  0
   -3.7548   -2.1855    0.0000 C   0  0  0  0  0  0  0  0  0  0  0  0
   -1.2135   -2.7256    0.0000 N   0  0  0  0  0  0  0  0  0  0  0  0
   -0.0000   -3.6073    0.0000 C   0  0  0  0  0  0  0  0  0  0  0  0
    1.2135   -2.7256    0.0000 C   0  0  0  0  0  0  0  0  0  0  0  0
    2.6401   -3.1891    0.0000 C   0  0  0  0  0  0  0  0  0  0  0  0
    3.7548   -2.1855    0.0000 O   0  0  0  0  0  0  0  0  0  0  0  0
    2.9520   -4.6564    0.0000 C   0  0  0  0  0  0  0  0  0  0  0  0
    1.8373   -5.6601    0.0000 C   0  0  0  0  0  0  0  0  0  0  0  0
    2.1491   -7.1273    0.0000 N   0  0  0  0  0  0  0  0  0  0  0  0
    3.5757   -7.5908    0.0000 C   0  0  0  0  0  0  0  0  0  0  0  0
    4.6904   -6.5871    0.0000 C   0  0  0  0  0  0  0  0  0  0  0  0
    6.1170   -7.0506    0.0000 N   0  0  0  0  0  0  0  0  0  0  0  0
    6.4289   -8.5179    0.0000 C   0  0  0  0  0  0  0  0  0  0  0  0
    5.3142   -9.5216    0.0000 O   0  0  0  0  0  0  0  0  0  0  0  0
    7.8555   -8.9814    0.0000 C   0  0  0  0  0  0  0  0  0  0  0  0
    8.1673  -10.4486    0.0000 C   0  0  0  0  0  0  0  0  0  0  0  0
    7.0526  -11.4523    0.0000 C   0  0  0  0  0  0  0  0  0  0  0  0
    7.3645  -12.9195    0.0000 C   0  0  0  0  0  0  0  0  0  0  0  0
    8.7911  -13.3831    0.0000 C   0  0  0  0  0  0  0  0  0  0  0  0
    9.1029  -14.8503    0.0000 Cl  0  0  0  0  0  0  0  0  0  0  0  0
    9.9058  -12.3794    0.0000 C   0  0  0  0  0  0  0  0  0  0  0  0
    9.5939  -10.9121    0.0000 N   0  0  0  0  0  0  0  0  0  0  0  0
    4.3786   -5.1199    0.0000 C   0  0  0  0  0  0  0  0  0  0  0  0
    0.7500   -1.2990    0.0000 C   0  0  0  0  0  0  0  0  0  0  0  0
    1.5000    0.0000    0.0000 C   0  0  0  0  0  0  0  0  0  0  0  0
    0.7500    1.2990    0.0000 N   0  0  0  0  0  0  0  0  0  0  0  0
   -0.7500    1.2990    0.0000 C   0  0  0  0  0  0  0  0  0  0  0  0
   -1.5000    0.0000    0.0000 C   0  0  0  0  0  0  0  0  0  0  0  0
   -0.7500   -1.2990    0.0000 C   0  0  0  0  0  0  0  0  0  0  0  0
  1  2  1  0
  2  3  1  0
  2  4  1  0
  4  5  1  0
  5  6  2  0
  6  7  1  0
  7  8  2  0
  7  9  1  0
  9 10  2  0
 10 11  1  0
 11 12  2  0
 12 13  1  0
 13 14  1  0
 14 15  1  0
 15 16  2  0
 15 17  1  0
 17 18  1  0
 18 19  2  0
 19 20  1  0
 20 21  2  0
 21 22  1  0
 21 23  1  0
 23 24  2  0
 13 25  2  0
  6 26  1  0
 26 27  2  0
 27 28  1  0
 28 29  2  0
 29 30  1  0
 30 31  2  0
 31  4  1  0
 25  9  1  0
 31 26  1  0
 24 18  1  0
M  END
>  <Compound_ID>  (548) 
CHEMBL3930913

>  <Molecule Name>  (548) 
nan

>  <Molecular Weight>  (548) 
433.9

>  <AlogP>  (548) 
4.47

>  <Smiles>  (548) 
CC(C)n1cc(C(=O)c2cncc(NC(=O)Cc3ccc(Cl)cn3)c2)c2cnccc21

>  <Standard Type>  (548) 
IC50

>  <Standard Relation>  (548) 
'='

>  <Standard Units>  (548) 
nM

>  <Standard Value>  (548) 
9.64

>  <Assay ChEMBL ID>  (548) 
CHEMBL3887111

>  <Assay Description>  (548) 
HTRF Assay: Isolated TRK Enzyme assays use the HTRF KinEASE-TK kit (Cisbio Cat#62TK0PEJ) with recombinant His-tagged cytoplasmic domains of each TRK receptor sourced from Invitrogen (see table below). This activity-assay measures the phosphorylation of tyrosine residues within a substrate from the HTRF kit which has been validated by Cisbio for a variety of tyrosine kinases including the TRK receptors.Assay Details: Invitrogen Amino FAC FAC Assay ReactionTarget Cat# acids enzyme ATP TimeTRKA PV3144 aa 441-4 nM 40 uM 35 min (NTRK1) 796 TRKB PV3616 aa 526-1 nM 1.4 uM 40 min (NTRK2) 838 TRKC PV3617 aa 510- 10 nM 15 uM 30 min (NTRK3) 8250.5 mM stock solutions of test compounds are prepared and serially diluted in 100% DMSO. A standard curve using the compound of Example 135 disclosed in WO2005/116035 of 150 uM is also prepared on each test plate. High percentage effect (HPE) is defined by 150 uM.

>  <BAO Format ID>  (548) 
BAO_0000357

>  <BAO Label>  (548) 
single protein format

>  <Assay Organism>  (548) 
None

>  <Target ChEMBL ID>  (548) 
CHEMBL2815

>  <Target Name>  (548) 
Nerve growth factor receptor Trk-A

>  <Target Organism>  (548) 
Homo sapiens

>  <Target Type>  (548) 
SINGLE PROTEIN

>  <Document ChEMBL ID>  (548) 
CHEMBL3886170

>  <Source Description>  (548) 
BindingDB Database

>  <Document Journal>  (548) 
nan

>  <Document Year>  (548) 
2015.0

>  <Active>  (548) 
1.0

>  <bits>  (548) 
<rdkit.DataStructs.cDataStructs.ExplicitBitVect object at 0x00000159F5470E40>

>  <Group>  (548) 
G2

$$$$

     RDKit          2D

 28 32  0  0  0  0  0  0  0  0999 V2000
    5.9262   -3.3786    0.0000 N   0  0  0  0  0  0  0  0  0  0  0  0
    5.4627   -1.9520    0.0000 C   0  0  0  0  0  0  0  0  0  0  0  0
    6.4664   -0.8373    0.0000 N   0  0  0  0  0  0  0  0  0  0  0  0
    6.0029    0.5893    0.0000 C   0  0  0  0  0  0  0  0  0  0  0  0
    4.5356    0.9012    0.0000 C   0  0  0  0  0  0  0  0  0  0  0  0
    4.0721    2.3277    0.0000 F   0  0  0  0  0  0  0  0  0  0  0  0
    3.5320   -0.2136    0.0000 C   0  0  0  0  0  0  0  0  0  0  0  0
    3.9955   -1.6402    0.0000 C   0  0  0  0  0  0  0  0  0  0  0  0
    2.9918   -2.7549    0.0000 C   0  0  0  0  0  0  0  0  0  0  0  0
    3.3037   -4.2221    0.0000 C   0  0  0  0  0  0  0  0  0  0  0  0
    2.0046   -4.9721    0.0000 C   0  0  0  0  0  0  0  0  0  0  0  0
    0.8899   -3.9684    0.0000 C   0  0  0  0  0  0  0  0  0  0  0  0
    1.5000   -2.5981    0.0000 N   0  0  0  0  0  0  0  0  0  0  0  0
    0.7500   -1.2990    0.0000 C   0  0  0  0  0  0  0  0  0  0  0  0
    1.5000    0.0000    0.0000 C   0  0  0  0  0  0  0  0  0  0  0  0
    0.7500    1.2990    0.0000 C   0  0  0  0  0  0  0  0  0  0  0  0
   -0.7500    1.2990    0.0000 N   0  0  0  0  0  0  0  0  0  0  0  0
   -1.7537    2.4138    0.0000 N   0  0  0  0  0  0  0  0  0  0  0  0
   -3.1240    1.8037    0.0000 C   0  0  0  0  0  0  0  0  0  0  0  0
   -2.9672    0.3119    0.0000 C   0  0  0  0  0  0  0  0  0  0  0  0
   -4.0819   -0.6918    0.0000 C   0  0  0  0  0  0  0  0  0  0  0  0
   -3.7701   -2.1590    0.0000 O   0  0  0  0  0  0  0  0  0  0  0  0
   -5.5085   -0.2283    0.0000 N   0  0  0  0  0  0  0  0  0  0  0  0
   -6.1895    1.1082    0.0000 C   0  0  0  0  0  0  0  0  0  0  0  0
   -7.5260    0.4272    0.0000 C   0  0  0  0  0  0  0  0  0  0  0  0
   -6.8450   -0.9093    0.0000 C   0  0  0  0  0  0  0  0  0  0  0  0
   -1.5000    0.0000    0.0000 C   0  0  0  0  0  0  0  0  0  0  0  0
   -0.7500   -1.2990    0.0000 N   0  0  0  0  0  0  0  0  0  0  0  0
  1  2  1  0
  2  3  2  0
  3  4  1  0
  4  5  2  0
  5  6  1  0
  5  7  1  0
  7  8  2  0
  9  8  1  1
  9 10  1  0
 10 11  1  0
 11 12  1  0
 12 13  1  0
 13 14  1  0
 14 15  1  0
 15 16  2  0
 16 17  1  0
 17 18  1  0
 18 19  2  0
 19 20  1  0
 20 21  1  0
 21 22  2  0
 21 23  1  0
 23 24  1  0
 24 25  1  0
 25 26  1  0
 20 27  2  0
 27 28  1  0
  8  2  1  0
 13  9  1  0
 28 14  2  0
 27 17  1  0
 26 23  1  0
M  END
>  <Compound_ID>  (549) 
CHEMBL3676086

>  <Molecule Name>  (549) 
nan

>  <Molecular Weight>  (549) 
381.42

>  <AlogP>  (549) 
2.03

>  <Smiles>  (549) 
Nc1ncc(F)cc1[C@H]1CCCN1c1ccn2ncc(C(=O)N3CCC3)c2n1

>  <Standard Type>  (549) 
IC50

>  <Standard Relation>  (549) 
'='

>  <Standard Units>  (549) 
nM

>  <Standard Value>  (549) 
49.3

>  <Assay ChEMBL ID>  (549) 
CHEMBL3887070

>  <Assay Description>  (549) 
ELISA Assay: An enzyme-linked immunosorbant assay (ELISA) was used to assess TrkA kinase activity in the presence of inhibitors. Immulon 4HBX 384-well microtiter plates (Thermo part #8755) were coated with a 0.025 mg/mL solution of poly (Glu, Ala, Tyr; 6:3:1; Sigma P3899). Various concentrations of test compound, 2.5 nM TrkA (Invitrogen Corp., histidine-tagged recombinant human TrkA, cytoplasmic domain), and 500 uM ATP were incubated for 25 minutes at ambient temperature in the coated plates while shaking The assay buffer consisted of 25 mM MOPS pH 7.5, 0.005% (v/v) Triton X-100 and 5 mM MgCl2. The reaction mixture was removed from the plate by washing with PBS containing 0.1% (v/v) Tween 20. The phosphorylated reaction product was detected using 0.2 ug/mL of a phosphotyrosine specific monoclonal antibody (clone PY20) conjugated to horseradish peroxidase in conjunction with the TMB Peroxidase Substrate System (KPL).

>  <BAO Format ID>  (549) 
BAO_0000357

>  <BAO Label>  (549) 
single protein format

>  <Assay Organism>  (549) 
None

>  <Target ChEMBL ID>  (549) 
CHEMBL2815

>  <Target Name>  (549) 
Nerve growth factor receptor Trk-A

>  <Target Organism>  (549) 
Homo sapiens

>  <Target Type>  (549) 
SINGLE PROTEIN

>  <Document ChEMBL ID>  (549) 
CHEMBL3638907

>  <Source Description>  (549) 
BindingDB Database

>  <Document Journal>  (549) 
nan

>  <Document Year>  (549) 
2014.0

>  <Active>  (549) 
1.0

>  <bits>  (549) 
<rdkit.DataStructs.cDataStructs.ExplicitBitVect object at 0x00000159F54738B0>

>  <Group>  (549) 
G2

$$$$

     RDKit          2D

 29 32  0  0  0  0  0  0  0  0999 V2000
   -3.7548   -2.1855    0.0000 O   0  0  0  0  0  0  0  0  0  0  0  0
   -2.6401   -3.1891    0.0000 C   0  0  0  0  0  0  0  0  0  0  0  0
   -2.9520   -4.6564    0.0000 N   0  0  0  0  0  0  0  0  0  0  0  0
   -4.3786   -5.1199    0.0000 O   0  0  0  0  0  0  0  0  0  0  0  0
   -4.6904   -6.5871    0.0000 C   0  0  0  0  0  0  0  0  0  0  0  0
   -6.1170   -7.0506    0.0000 C   0  0  0  0  0  0  0  0  0  0  0  0
   -6.4289   -8.5179    0.0000 O   0  0  0  0  0  0  0  0  0  0  0  0
   -1.2135   -2.7256    0.0000 C   0  0  0  0  0  0  0  0  0  0  0  0
   -0.0000   -3.6073    0.0000 C   0  0  0  0  0  0  0  0  0  0  0  0
    1.2135   -2.7256    0.0000 N   0  0  0  0  0  0  0  0  0  0  0  0
    0.7500   -1.2990    0.0000 N   0  0  0  0  0  0  0  0  0  0  0  0
    1.5000    0.0000    0.0000 C   0  0  0  0  0  0  0  0  0  0  0  0
    0.7500    1.2990    0.0000 C   0  0  0  0  0  0  0  0  0  0  0  0
   -0.7500    1.2990    0.0000 C   0  0  0  0  0  0  0  0  0  0  0  0
   -1.5000    2.5981    0.0000 N   0  0  0  0  0  0  0  0  0  0  0  0
   -2.9918    2.7549    0.0000 C   0  0  0  0  0  0  0  0  0  0  0  0
   -3.3037    4.2221    0.0000 C   0  0  0  0  0  0  0  0  0  0  0  0
   -2.0046    4.9721    0.0000 C   0  0  0  0  0  0  0  0  0  0  0  0
   -0.8899    3.9684    0.0000 C   0  0  0  0  0  0  0  0  0  0  0  0
    0.5773    4.2803    0.0000 C   0  0  0  0  0  0  0  0  0  0  0  0
    1.5810    3.1655    0.0000 C   0  0  0  0  0  0  0  0  0  0  0  0
    3.0482    3.4774    0.0000 C   0  0  0  0  0  0  0  0  0  0  0  0
    4.0519    2.3627    0.0000 F   0  0  0  0  0  0  0  0  0  0  0  0
    3.5118    4.9040    0.0000 C   0  0  0  0  0  0  0  0  0  0  0  0
    2.5081    6.0187    0.0000 N   0  0  0  0  0  0  0  0  0  0  0  0
    1.0409    5.7068    0.0000 C   0  0  0  0  0  0  0  0  0  0  0  0
    0.0372    6.8216    0.0000 Cl  0  0  0  0  0  0  0  0  0  0  0  0
   -1.5000    0.0000    0.0000 N   0  0  0  0  0  0  0  0  0  0  0  0
   -0.7500   -1.2990    0.0000 C   0  0  0  0  0  0  0  0  0  0  0  0
  1  2  2  0
  2  3  1  0
  3  4  1  0
  4  5  1  0
  5  6  1  0
  6  7  1  0
  2  8  1  0
  8  9  1  0
  9 10  2  0
 10 11  1  0
 11 12  1  0
 12 13  2  0
 13 14  1  0
 14 15  1  0
 15 16  1  0
 16 17  1  0
 17 18  1  0
 18 19  1  0
 19 20  1  6
 20 21  2  0
 21 22  1  0
 22 23  1  0
 22 24  2  0
 24 25  1  0
 25 26  2  0
 26 27  1  0
 14 28  2  0
 28 29  1  0
 29  8  2  0
 29 11  1  0
 19 15  1  0
 26 20  1  0
M  END
>  <Compound_ID>  (550) 
CHEMBL3676087

>  <Molecule Name>  (550) 
nan

>  <Molecular Weight>  (550) 
420.83

>  <AlogP>  (550) 
1.91

>  <Smiles>  (550) 
O=C(NOCCO)c1cnn2ccc(N3CCC[C@@H]3c3cc(F)cnc3Cl)nc12

>  <Standard Type>  (550) 
IC50

>  <Standard Relation>  (550) 
'='

>  <Standard Units>  (550) 
nM

>  <Standard Value>  (550) 
52.4

>  <Assay ChEMBL ID>  (550) 
CHEMBL3887070

>  <Assay Description>  (550) 
ELISA Assay: An enzyme-linked immunosorbant assay (ELISA) was used to assess TrkA kinase activity in the presence of inhibitors. Immulon 4HBX 384-well microtiter plates (Thermo part #8755) were coated with a 0.025 mg/mL solution of poly (Glu, Ala, Tyr; 6:3:1; Sigma P3899). Various concentrations of test compound, 2.5 nM TrkA (Invitrogen Corp., histidine-tagged recombinant human TrkA, cytoplasmic domain), and 500 uM ATP were incubated for 25 minutes at ambient temperature in the coated plates while shaking The assay buffer consisted of 25 mM MOPS pH 7.5, 0.005% (v/v) Triton X-100 and 5 mM MgCl2. The reaction mixture was removed from the plate by washing with PBS containing 0.1% (v/v) Tween 20. The phosphorylated reaction product was detected using 0.2 ug/mL of a phosphotyrosine specific monoclonal antibody (clone PY20) conjugated to horseradish peroxidase in conjunction with the TMB Peroxidase Substrate System (KPL).

>  <BAO Format ID>  (550) 
BAO_0000357

>  <BAO Label>  (550) 
single protein format

>  <Assay Organism>  (550) 
None

>  <Target ChEMBL ID>  (550) 
CHEMBL2815

>  <Target Name>  (550) 
Nerve growth factor receptor Trk-A

>  <Target Organism>  (550) 
Homo sapiens

>  <Target Type>  (550) 
SINGLE PROTEIN

>  <Document ChEMBL ID>  (550) 
CHEMBL3638907

>  <Source Description>  (550) 
BindingDB Database

>  <Document Journal>  (550) 
nan

>  <Document Year>  (550) 
2014.0

>  <Active>  (550) 
1.0

>  <bits>  (550) 
<rdkit.DataStructs.cDataStructs.ExplicitBitVect object at 0x00000159F54704A0>

>  <Group>  (550) 
G2

$$$$

     RDKit          2D

 36 39  0  0  0  0  0  0  0  0999 V2000
   -2.1766   -4.6157    0.0000 C   0  0  0  0  0  0  0  0  0  0  0  0
   -2.6401   -3.1891    0.0000 C   0  0  0  0  0  0  0  0  0  0  0  0
   -3.1036   -1.7626    0.0000 C   0  0  0  0  0  0  0  0  0  0  0  0
   -4.0667   -3.6527    0.0000 C   0  0  0  0  0  0  0  0  0  0  0  0
   -5.1814   -2.6490    0.0000 O   0  0  0  0  0  0  0  0  0  0  0  0
   -1.2135   -2.7256    0.0000 N   0  0  0  0  0  0  0  0  0  0  0  0
   -0.0000   -3.6073    0.0000 C   0  0  0  0  0  0  0  0  0  0  0  0
    1.2135   -2.7256    0.0000 C   0  0  0  0  0  0  0  0  0  0  0  0
    2.6401   -3.1891    0.0000 C   0  0  0  0  0  0  0  0  0  0  0  0
    3.7548   -2.1855    0.0000 O   0  0  0  0  0  0  0  0  0  0  0  0
    2.9520   -4.6564    0.0000 C   0  0  0  0  0  0  0  0  0  0  0  0
    1.8373   -5.6601    0.0000 C   0  0  0  0  0  0  0  0  0  0  0  0
    2.1491   -7.1273    0.0000 C   0  0  0  0  0  0  0  0  0  0  0  0
    1.0344   -8.1310    0.0000 N   0  0  0  0  0  0  0  0  0  0  0  0
   -0.3922   -7.6675    0.0000 C   0  0  0  0  0  0  0  0  0  0  0  0
   -0.7040   -6.2002    0.0000 O   0  0  0  0  0  0  0  0  0  0  0  0
   -1.5069   -8.6712    0.0000 C   0  0  0  0  0  0  0  0  0  0  0  0
   -2.9335   -8.2076    0.0000 C   0  0  0  0  0  0  0  0  0  0  0  0
   -3.2453   -6.7404    0.0000 C   0  0  0  0  0  0  0  0  0  0  0  0
   -4.6719   -6.2769    0.0000 C   0  0  0  0  0  0  0  0  0  0  0  0
   -5.7866   -7.2806    0.0000 C   0  0  0  0  0  0  0  0  0  0  0  0
   -5.4748   -8.7478    0.0000 C   0  0  0  0  0  0  0  0  0  0  0  0
   -6.5895   -9.7515    0.0000 C   0  0  0  0  0  0  0  0  0  0  0  0
   -7.7042  -10.7552    0.0000 F   0  0  0  0  0  0  0  0  0  0  0  0
   -7.5932   -8.6368    0.0000 F   0  0  0  0  0  0  0  0  0  0  0  0
   -5.5858  -10.8662    0.0000 F   0  0  0  0  0  0  0  0  0  0  0  0
   -4.0482   -9.2113    0.0000 C   0  0  0  0  0  0  0  0  0  0  0  0
    3.5757   -7.5908    0.0000 C   0  0  0  0  0  0  0  0  0  0  0  0
    4.6904   -6.5871    0.0000 C   0  0  0  0  0  0  0  0  0  0  0  0
    4.3786   -5.1199    0.0000 N   0  0  0  0  0  0  0  0  0  0  0  0
    0.7500   -1.2990    0.0000 C   0  0  0  0  0  0  0  0  0  0  0  0
    1.5000    0.0000    0.0000 C   0  0  0  0  0  0  0  0  0  0  0  0
    0.7500    1.2990    0.0000 N   0  0  0  0  0  0  0  0  0  0  0  0
   -0.7500    1.2990    0.0000 C   0  0  0  0  0  0  0  0  0  0  0  0
   -1.5000    0.0000    0.0000 C   0  0  0  0  0  0  0  0  0  0  0  0
   -0.7500   -1.2990    0.0000 C   0  0  0  0  0  0  0  0  0  0  0  0
  1  2  1  0
  2  3  1  0
  2  4  1  0
  4  5  1  0
  2  6  1  0
  6  7  1  0
  7  8  2  0
  8  9  1  0
  9 10  2  0
  9 11  1  0
 11 12  2  0
 12 13  1  0
 13 14  1  0
 14 15  1  0
 15 16  2  0
 15 17  1  0
 17 18  1  0
 18 19  2  0
 19 20  1  0
 20 21  2  0
 21 22  1  0
 22 23  1  0
 23 24  1  0
 23 25  1  0
 23 26  1  0
 22 27  2  0
 13 28  2  0
 28 29  1  0
 29 30  2  0
  8 31  1  0
 31 32  2  0
 32 33  1  0
 33 34  2  0
 34 35  1  0
 35 36  2  0
 36  6  1  0
 30 11  1  0
 36 31  1  0
 27 18  1  0
M  END
>  <Compound_ID>  (551) 
CHEMBL3899253

>  <Molecule Name>  (551) 
nan

>  <Molecular Weight>  (551) 
496.49

>  <AlogP>  (551) 
4.59

>  <Smiles>  (551) 
CC(C)(CO)n1cc(C(=O)c2cc(NC(=O)Cc3cccc(C(F)(F)F)c3)ccn2)c2cnccc21

>  <Standard Type>  (551) 
IC50

>  <Standard Relation>  (551) 
'='

>  <Standard Units>  (551) 
nM

>  <Standard Value>  (551) 
11.3

>  <Assay ChEMBL ID>  (551) 
CHEMBL3887111

>  <Assay Description>  (551) 
HTRF Assay: Isolated TRK Enzyme assays use the HTRF KinEASE-TK kit (Cisbio Cat#62TK0PEJ) with recombinant His-tagged cytoplasmic domains of each TRK receptor sourced from Invitrogen (see table below). This activity-assay measures the phosphorylation of tyrosine residues within a substrate from the HTRF kit which has been validated by Cisbio for a variety of tyrosine kinases including the TRK receptors.Assay Details: Invitrogen Amino FAC FAC Assay ReactionTarget Cat# acids enzyme ATP TimeTRKA PV3144 aa 441-4 nM 40 uM 35 min (NTRK1) 796 TRKB PV3616 aa 526-1 nM 1.4 uM 40 min (NTRK2) 838 TRKC PV3617 aa 510- 10 nM 15 uM 30 min (NTRK3) 8250.5 mM stock solutions of test compounds are prepared and serially diluted in 100% DMSO. A standard curve using the compound of Example 135 disclosed in WO2005/116035 of 150 uM is also prepared on each test plate. High percentage effect (HPE) is defined by 150 uM.

>  <BAO Format ID>  (551) 
BAO_0000357

>  <BAO Label>  (551) 
single protein format

>  <Assay Organism>  (551) 
None

>  <Target ChEMBL ID>  (551) 
CHEMBL2815

>  <Target Name>  (551) 
Nerve growth factor receptor Trk-A

>  <Target Organism>  (551) 
Homo sapiens

>  <Target Type>  (551) 
SINGLE PROTEIN

>  <Document ChEMBL ID>  (551) 
CHEMBL3886170

>  <Source Description>  (551) 
BindingDB Database

>  <Document Journal>  (551) 
nan

>  <Document Year>  (551) 
2015.0

>  <Active>  (551) 
1.0

>  <bits>  (551) 
<rdkit.DataStructs.cDataStructs.ExplicitBitVect object at 0x00000159F5473B50>

>  <Group>  (551) 
G2

$$$$

     RDKit          2D

 30 34  0  0  0  0  0  0  0  0999 V2000
    7.9336   -1.1492    0.0000 C   0  0  0  0  0  0  0  0  0  0  0  0
    6.4664   -0.8373    0.0000 N   0  0  0  0  0  0  0  0  0  0  0  0
    6.0029    0.5893    0.0000 C   0  0  0  0  0  0  0  0  0  0  0  0
    4.5356    0.9012    0.0000 C   0  0  0  0  0  0  0  0  0  0  0  0
    4.0721    2.3277    0.0000 F   0  0  0  0  0  0  0  0  0  0  0  0
    3.5320   -0.2136    0.0000 C   0  0  0  0  0  0  0  0  0  0  0  0
    3.9955   -1.6402    0.0000 C   0  0  0  0  0  0  0  0  0  0  0  0
    2.9918   -2.7549    0.0000 C   0  0  0  0  0  0  0  0  0  0  0  0
    3.3037   -4.2221    0.0000 C   0  0  0  0  0  0  0  0  0  0  0  0
    2.0046   -4.9721    0.0000 C   0  0  0  0  0  0  0  0  0  0  0  0
    0.8899   -3.9684    0.0000 C   0  0  0  0  0  0  0  0  0  0  0  0
    1.5000   -2.5981    0.0000 N   0  0  0  0  0  0  0  0  0  0  0  0
    0.7500   -1.2990    0.0000 C   0  0  0  0  0  0  0  0  0  0  0  0
    1.5000    0.0000    0.0000 C   0  0  0  0  0  0  0  0  0  0  0  0
    0.7500    1.2990    0.0000 C   0  0  0  0  0  0  0  0  0  0  0  0
   -0.7500    1.2990    0.0000 N   0  0  0  0  0  0  0  0  0  0  0  0
   -1.7537    2.4138    0.0000 N   0  0  0  0  0  0  0  0  0  0  0  0
   -3.1240    1.8037    0.0000 C   0  0  0  0  0  0  0  0  0  0  0  0
   -2.9672    0.3119    0.0000 C   0  0  0  0  0  0  0  0  0  0  0  0
   -4.0819   -0.6918    0.0000 C   0  0  0  0  0  0  0  0  0  0  0  0
   -3.7701   -2.1590    0.0000 O   0  0  0  0  0  0  0  0  0  0  0  0
   -5.5085   -0.2283    0.0000 N   0  0  0  0  0  0  0  0  0  0  0  0
   -6.6232   -1.2320    0.0000 C   0  0  0  0  0  0  0  0  0  0  0  0
   -8.0498   -0.7685    0.0000 C   0  0  0  0  0  0  0  0  0  0  0  0
   -9.5170   -1.0803    0.0000 C   0  0  0  0  0  0  0  0  0  0  0  0
   -9.0535    0.3462    0.0000 C   0  0  0  0  0  0  0  0  0  0  0  0
   -1.5000    0.0000    0.0000 C   0  0  0  0  0  0  0  0  0  0  0  0
   -0.7500   -1.2990    0.0000 N   0  0  0  0  0  0  0  0  0  0  0  0
    5.4627   -1.9520    0.0000 C   0  0  0  0  0  0  0  0  0  0  0  0
    5.9262   -3.3786    0.0000 O   0  0  0  0  0  0  0  0  0  0  0  0
  1  2  1  0
  2  3  1  0
  3  4  2  0
  4  5  1  0
  4  6  1  0
  6  7  2  0
  8  7  1  1
  8  9  1  0
  9 10  1  0
 10 11  1  0
 11 12  1  0
 12 13  1  0
 13 14  1  0
 14 15  2  0
 15 16  1  0
 16 17  1  0
 17 18  2  0
 18 19  1  0
 19 20  1  0
 20 21  2  0
 20 22  1  0
 22 23  1  0
 23 24  1  0
 24 25  1  0
 25 26  1  0
 19 27  2  0
 27 28  1  0
  7 29  1  0
 29 30  2  0
 29  2  1  0
 12  8  1  0
 28 13  2  0
 27 16  1  0
 26 24  1  0
M  END
>  <Compound_ID>  (552) 
CHEMBL3676094

>  <Molecule Name>  (552) 
nan

>  <Molecular Weight>  (552) 
410.45

>  <AlogP>  (552) 
2.05

>  <Smiles>  (552) 
Cn1cc(F)cc([C@H]2CCCN2c2ccn3ncc(C(=O)NCC4CC4)c3n2)c1=O

>  <Standard Type>  (552) 
IC50

>  <Standard Relation>  (552) 
'='

>  <Standard Units>  (552) 
nM

>  <Standard Value>  (552) 
4.5

>  <Assay ChEMBL ID>  (552) 
CHEMBL3887070

>  <Assay Description>  (552) 
ELISA Assay: An enzyme-linked immunosorbant assay (ELISA) was used to assess TrkA kinase activity in the presence of inhibitors. Immulon 4HBX 384-well microtiter plates (Thermo part #8755) were coated with a 0.025 mg/mL solution of poly (Glu, Ala, Tyr; 6:3:1; Sigma P3899). Various concentrations of test compound, 2.5 nM TrkA (Invitrogen Corp., histidine-tagged recombinant human TrkA, cytoplasmic domain), and 500 uM ATP were incubated for 25 minutes at ambient temperature in the coated plates while shaking The assay buffer consisted of 25 mM MOPS pH 7.5, 0.005% (v/v) Triton X-100 and 5 mM MgCl2. The reaction mixture was removed from the plate by washing with PBS containing 0.1% (v/v) Tween 20. The phosphorylated reaction product was detected using 0.2 ug/mL of a phosphotyrosine specific monoclonal antibody (clone PY20) conjugated to horseradish peroxidase in conjunction with the TMB Peroxidase Substrate System (KPL).

>  <BAO Format ID>  (552) 
BAO_0000357

>  <BAO Label>  (552) 
single protein format

>  <Assay Organism>  (552) 
None

>  <Target ChEMBL ID>  (552) 
CHEMBL2815

>  <Target Name>  (552) 
Nerve growth factor receptor Trk-A

>  <Target Organism>  (552) 
Homo sapiens

>  <Target Type>  (552) 
SINGLE PROTEIN

>  <Document ChEMBL ID>  (552) 
CHEMBL3638907

>  <Source Description>  (552) 
BindingDB Database

>  <Document Journal>  (552) 
nan

>  <Document Year>  (552) 
2014.0

>  <Active>  (552) 
1.0

>  <bits>  (552) 
<rdkit.DataStructs.cDataStructs.ExplicitBitVect object at 0x00000159F5473A70>

>  <Group>  (552) 
G2

$$$$

     RDKit          2D

 30 32  0  0  0  0  0  0  0  0999 V2000
    5.2500   -1.2990    0.0000 C   0  0  0  0  0  0  0  0  0  0  0  0
    3.7500   -1.2990    0.0000 N   0  0  0  0  0  0  0  0  0  0  0  0
    3.0000    0.0000    0.0000 C   0  0  0  0  0  0  0  0  0  0  0  0
    3.7500    1.2990    0.0000 O   0  0  0  0  0  0  0  0  0  0  0  0
    1.5000    0.0000    0.0000 C   0  0  0  0  0  0  0  0  0  0  0  0
    0.7500   -1.2990    0.0000 C   0  0  0  0  0  0  0  0  0  0  0  0
   -0.7500   -1.2990    0.0000 C   0  0  0  0  0  0  0  0  0  0  0  0
   -1.5000    0.0000    0.0000 C   0  0  0  0  0  0  0  0  0  0  0  0
   -3.0000    0.0000    0.0000 N   0  0  0  0  0  0  0  0  0  0  0  0
   -3.7500    1.2990    0.0000 C   0  0  0  0  0  0  0  0  0  0  0  0
   -3.0000    2.5981    0.0000 N   0  0  0  0  0  0  0  0  0  0  0  0
   -3.7500    3.8971    0.0000 C   0  0  0  0  0  0  0  0  0  0  0  0
   -5.2500    3.8971    0.0000 C   0  0  0  0  0  0  0  0  0  0  0  0
   -6.0000    5.1962    0.0000 C   0  0  0  0  0  0  0  0  0  0  0  0
   -6.7500    6.4952    0.0000 F   0  0  0  0  0  0  0  0  0  0  0  0
   -4.7010    5.9462    0.0000 F   0  0  0  0  0  0  0  0  0  0  0  0
   -7.2990    4.4462    0.0000 F   0  0  0  0  0  0  0  0  0  0  0  0
   -6.0000    2.5981    0.0000 C   0  0  0  0  0  0  0  0  0  0  0  0
   -7.5000    2.5981    0.0000 N   0  0  0  0  0  0  0  0  0  0  0  0
   -8.2500    1.2990    0.0000 C   0  0  0  0  0  0  0  0  0  0  0  0
   -9.7500    1.2990    0.0000 C   0  0  0  0  0  0  0  0  0  0  0  0
  -10.5000    0.0000    0.0000 C   0  0  0  0  0  0  0  0  0  0  0  0
   -9.7500   -1.2990    0.0000 C   0  0  0  0  0  0  0  0  0  0  0  0
   -8.2500   -1.2990    0.0000 C   0  0  0  0  0  0  0  0  0  0  0  0
   -7.5000    0.0000    0.0000 C   0  0  0  0  0  0  0  0  0  0  0  0
   -6.0000    0.0000    0.0000 O   0  0  0  0  0  0  0  0  0  0  0  0
   -5.2500   -1.2990    0.0000 C   0  0  0  0  0  0  0  0  0  0  0  0
   -5.2500    1.2990    0.0000 N   0  0  0  0  0  0  0  0  0  0  0  0
   -0.7500    1.2990    0.0000 C   0  0  0  0  0  0  0  0  0  0  0  0
    0.7500    1.2990    0.0000 C   0  0  0  0  0  0  0  0  0  0  0  0
  1  2  1  0
  2  3  1  0
  3  4  2  0
  3  5  1  0
  5  6  2  0
  6  7  1  0
  7  8  2  0
  8  9  1  0
  9 10  1  0
 10 11  2  0
 11 12  1  0
 12 13  2  0
 13 14  1  0
 14 15  1  0
 14 16  1  0
 14 17  1  0
 13 18  1  0
 18 19  1  0
 19 20  1  0
 20 21  2  0
 21 22  1  0
 22 23  2  0
 23 24  1  0
 24 25  2  0
 25 26  1  0
 26 27  1  0
 18 28  2  0
  8 29  1  0
 29 30  2  0
 30  5  1  0
 28 10  1  0
 25 20  1  0
M  END
>  <Compound_ID>  (553) 
CHEMBL4874046

>  <Molecule Name>  (553) 
nan

>  <Molecular Weight>  (553) 
417.39

>  <AlogP>  (553) 
4.35

>  <Smiles>  (553) 
CNC(=O)c1ccc(Nc2ncc(C(F)(F)F)c(Nc3ccccc3OC)n2)cc1

>  <Standard Type>  (553) 
IC50

>  <Standard Relation>  (553) 
'='

>  <Standard Units>  (553) 
nM

>  <Standard Value>  (553) 
18.01

>  <Assay ChEMBL ID>  (553) 
CHEMBL4824344

>  <Assay Description>  (553) 
Inhibition of TRKA (unknown origin) measured after 40 mins by HTRF

>  <BAO Format ID>  (553) 
BAO_0000357

>  <BAO Label>  (553) 
single protein format

>  <Assay Organism>  (553) 
Homo sapiens

>  <Target ChEMBL ID>  (553) 
CHEMBL2815

>  <Target Name>  (553) 
Nerve growth factor receptor Trk-A

>  <Target Organism>  (553) 
Homo sapiens

>  <Target Type>  (553) 
SINGLE PROTEIN

>  <Document ChEMBL ID>  (553) 
CHEMBL4823267

>  <Source Description>  (553) 
Scientific Literature

>  <Document Journal>  (553) 
Eur J Med Chem

>  <Document Year>  (553) 
2021.0

>  <Active>  (553) 
1.0

>  <bits>  (553) 
<rdkit.DataStructs.cDataStructs.ExplicitBitVect object at 0x00000159F5473990>

>  <Group>  (553) 
G2

$$$$

     RDKit          2D

 38 42  0  0  0  0  0  0  0  0999 V2000
   -7.2317   -6.0469    0.0000 C   0  0  0  0  0  0  0  0  0  0  0  0
   -6.1170   -7.0506    0.0000 O   0  0  0  0  0  0  0  0  0  0  0  0
   -4.6904   -6.5871    0.0000 C   0  0  0  0  0  0  0  0  0  0  0  0
   -4.3786   -5.1199    0.0000 C   0  0  0  0  0  0  0  0  0  0  0  0
   -2.9520   -4.6564    0.0000 C   0  0  0  0  0  0  0  0  0  0  0  0
   -2.6401   -3.1891    0.0000 C   0  0  0  0  0  0  0  0  0  0  0  0
   -3.7548   -2.1855    0.0000 C   0  0  0  0  0  0  0  0  0  0  0  0
   -1.2135   -2.7256    0.0000 N   0  0  0  0  0  0  0  0  0  0  0  0
   -0.0000   -3.6073    0.0000 C   0  0  0  0  0  0  0  0  0  0  0  0
    0.0000   -5.1073    0.0000 N   0  0  0  0  0  0  0  0  0  0  0  0
    1.2135   -2.7256    0.0000 N   0  0  0  0  0  0  0  0  0  0  0  0
    0.7500   -1.2990    0.0000 C   0  0  0  0  0  0  0  0  0  0  0  0
    1.5000    0.0000    0.0000 C   0  0  0  0  0  0  0  0  0  0  0  0
    0.7500    1.2990    0.0000 C   0  0  0  0  0  0  0  0  0  0  0  0
    1.5000    2.5981    0.0000 C   0  0  0  0  0  0  0  0  0  0  0  0
    0.8899    3.9684    0.0000 C   0  0  0  0  0  0  0  0  0  0  0  0
    2.0046    4.9721    0.0000 N   0  0  0  0  0  0  0  0  0  0  0  0
    3.3037    4.2221    0.0000 N   0  0  0  0  0  0  0  0  0  0  0  0
    4.6740    4.8322    0.0000 C   0  0  0  0  0  0  0  0  0  0  0  0
    2.9918    2.7549    0.0000 C   0  0  0  0  0  0  0  0  0  0  0  0
   -0.7500    1.2990    0.0000 C   0  0  0  0  0  0  0  0  0  0  0  0
   -1.5000    0.0000    0.0000 N   0  0  0  0  0  0  0  0  0  0  0  0
   -0.7500   -1.2990    0.0000 C   0  0  0  0  0  0  0  0  0  0  0  0
   -1.8373   -5.6601    0.0000 C   0  0  0  0  0  0  0  0  0  0  0  0
   -2.1491   -7.1273    0.0000 C   0  0  0  0  0  0  0  0  0  0  0  0
   -3.5757   -7.5908    0.0000 C   0  0  0  0  0  0  0  0  0  0  0  0
   -3.8876   -9.0580    0.0000 O   0  0  0  0  0  0  0  0  0  0  0  0
   -2.7729  -10.0617    0.0000 C   0  0  0  0  0  0  0  0  0  0  0  0
   -3.0847  -11.5290    0.0000 C   0  0  0  0  0  0  0  0  0  0  0  0
   -4.5113  -11.9925    0.0000 C   0  0  0  0  0  0  0  0  0  0  0  0
   -4.8232  -13.4597    0.0000 C   0  0  0  0  0  0  0  0  0  0  0  0
   -3.7085  -14.4634    0.0000 C   0  0  0  0  0  0  0  0  0  0  0  0
   -4.0203  -15.9306    0.0000 C   0  0  0  0  0  0  0  0  0  0  0  0
   -4.3322  -17.3978    0.0000 F   0  0  0  0  0  0  0  0  0  0  0  0
   -5.4876  -15.6187    0.0000 F   0  0  0  0  0  0  0  0  0  0  0  0
   -2.5531  -16.2425    0.0000 F   0  0  0  0  0  0  0  0  0  0  0  0
   -2.2819  -13.9999    0.0000 C   0  0  0  0  0  0  0  0  0  0  0  0
   -1.9700  -12.5326    0.0000 C   0  0  0  0  0  0  0  0  0  0  0  0
  1  2  1  0
  2  3  1  0
  3  4  2  0
  4  5  1  0
  5  6  1  0
  6  7  1  1
  6  8  1  0
  8  9  1  0
  9 10  1  0
  9 11  2  0
 11 12  1  0
 12 13  2  0
 13 14  1  0
 14 15  1  0
 15 16  1  0
 16 17  2  0
 17 18  1  0
 18 19  1  0
 18 20  1  0
 14 21  2  0
 21 22  1  0
 22 23  2  0
  5 24  2  0
 24 25  1  0
 25 26  2  0
 26 27  1  0
 27 28  1  0
 28 29  1  0
 29 30  2  0
 30 31  1  0
 31 32  2  0
 32 33  1  0
 33 34  1  0
 33 35  1  0
 33 36  1  0
 32 37  1  0
 37 38  2  0
 26  3  1  0
 38 29  1  0
 23  8  1  0
 23 12  1  0
 20 15  2  0
M  END
>  <Compound_ID>  (554) 
CHEMBL3678298

>  <Molecule Name>  (554) 
nan

>  <Molecular Weight>  (554) 
522.53

>  <AlogP>  (554) 
5.63

>  <Smiles>  (554) 
COc1cc([C@@H](C)n2c(N)nc3cc(-c4cnn(C)c4)cnc32)ccc1OCc1ccc(C(F)(F)F)cc1

>  <Standard Type>  (554) 
IC50

>  <Standard Relation>  (554) 
'='

>  <Standard Units>  (554) 
nM

>  <Standard Value>  (554) 
5.0

>  <Assay ChEMBL ID>  (554) 
CHEMBL3887112

>  <Assay Description>  (554) 
Inhibition Assay: Reagents and consumables were purchased from Sigma Aldrich, Carna Biosciences, or Caliper Life Sciences. All assay reaction conditions for IC50 determinations were within the linear range with respect to time and enzyme concentration. In a 384 well polypropylene plate, TrkA (0.4 nM, Carna 08-186) was pre-incubated in a 100 mM Hepes-NaOH pH 7.5 buffer containing 0.01% Triton X-100, 10 mM MgCl2, 0.1% BSA, 1 mM DTT, 10 uM sodium orthovanadate and 10 uM beta-glycerophosphate and compound with a concentration of 2.5% DMSO for 15 minutes at room temperature. The reaction was initiated with an equal volume of peptide substrate (Caliper Life Sciences catalog no. 760430) and ATP in the aforementioned buffer. The final concentrations in the reaction were 200 pM TrkA, 1.5 uM peptide substrate and 55 uM ATP (ATP Km). The reaction was incubated at room temperature for 180 minutes and terminated with a buffer containing excess EDTA (100 mM Hepes-NaOH pH 7.5, 0.02% Brij.

>  <BAO Format ID>  (554) 
BAO_0000357

>  <BAO Label>  (554) 
single protein format

>  <Assay Organism>  (554) 
None

>  <Target ChEMBL ID>  (554) 
CHEMBL2815

>  <Target Name>  (554) 
Nerve growth factor receptor Trk-A

>  <Target Organism>  (554) 
Homo sapiens

>  <Target Type>  (554) 
SINGLE PROTEIN

>  <Document ChEMBL ID>  (554) 
CHEMBL3638818

>  <Source Description>  (554) 
BindingDB Database

>  <Document Journal>  (554) 
nan

>  <Document Year>  (554) 
2015.0

>  <Active>  (554) 
1.0

>  <bits>  (554) 
<rdkit.DataStructs.cDataStructs.ExplicitBitVect object at 0x00000159F54719A0>

>  <Group>  (554) 
G2

$$$$

     RDKit          2D

 32 36  0  0  0  0  0  0  0  0999 V2000
   -8.0346   -3.5760    0.0000 C   0  0  0  0  0  0  0  0  0  0  0  0
   -6.9199   -4.5797    0.0000 N   0  0  0  0  0  0  0  0  0  0  0  0
   -5.4933   -4.1162    0.0000 N   0  0  0  0  0  0  0  0  0  0  0  0
   -4.3786   -5.1199    0.0000 C   0  0  0  0  0  0  0  0  0  0  0  0
   -2.9520   -4.6564    0.0000 C   0  0  0  0  0  0  0  0  0  0  0  0
   -1.8373   -5.6601    0.0000 O   0  0  0  0  0  0  0  0  0  0  0  0
   -2.6401   -3.1891    0.0000 N   0  0  0  0  0  0  0  0  0  0  0  0
   -1.2135   -2.7256    0.0000 C   0  0  0  0  0  0  0  0  0  0  0  0
   -0.0000   -3.6073    0.0000 C   0  0  0  0  0  0  0  0  0  0  0  0
    1.2135   -2.7256    0.0000 N   0  0  0  0  0  0  0  0  0  0  0  0
    0.7500   -1.2990    0.0000 N   0  0  0  0  0  0  0  0  0  0  0  0
    1.5000    0.0000    0.0000 C   0  0  0  0  0  0  0  0  0  0  0  0
    0.7500    1.2990    0.0000 C   0  0  0  0  0  0  0  0  0  0  0  0
   -0.7500    1.2990    0.0000 C   0  0  0  0  0  0  0  0  0  0  0  0
   -1.5000    2.5981    0.0000 N   0  0  0  0  0  0  0  0  0  0  0  0
   -2.9918    2.7549    0.0000 C   0  0  0  0  0  0  0  0  0  0  0  0
   -3.3037    4.2221    0.0000 C   0  0  0  0  0  0  0  0  0  0  0  0
   -2.0046    4.9721    0.0000 C   0  0  0  0  0  0  0  0  0  0  0  0
   -0.8899    3.9684    0.0000 C   0  0  0  0  0  0  0  0  0  0  0  0
    0.5773    4.2803    0.0000 C   0  0  0  0  0  0  0  0  0  0  0  0
    1.5810    3.1655    0.0000 C   0  0  0  0  0  0  0  0  0  0  0  0
    3.0482    3.4774    0.0000 C   0  0  0  0  0  0  0  0  0  0  0  0
    3.5118    4.9040    0.0000 C   0  0  0  0  0  0  0  0  0  0  0  0
    2.5081    6.0187    0.0000 C   0  0  0  0  0  0  0  0  0  0  0  0
    2.9716    7.4453    0.0000 F   0  0  0  0  0  0  0  0  0  0  0  0
    1.0409    5.7068    0.0000 C   0  0  0  0  0  0  0  0  0  0  0  0
   -1.5000    0.0000    0.0000 N   0  0  0  0  0  0  0  0  0  0  0  0
   -0.7500   -1.2990    0.0000 C   0  0  0  0  0  0  0  0  0  0  0  0
   -4.6904   -6.5871    0.0000 C   0  0  0  0  0  0  0  0  0  0  0  0
   -6.1170   -7.0506    0.0000 C   0  0  0  0  0  0  0  0  0  0  0  0
   -7.2317   -6.0469    0.0000 C   0  0  0  0  0  0  0  0  0  0  0  0
   -8.6583   -6.5105    0.0000 O   0  0  0  0  0  0  0  0  0  0  0  0
  1  2  1  0
  2  3  1  0
  3  4  2  0
  4  5  1  0
  5  6  2  0
  5  7  1  0
  7  8  1  0
  8  9  1  0
  9 10  2  0
 10 11  1  0
 11 12  1  0
 12 13  2  0
 13 14  1  0
 14 15  1  0
 15 16  1  0
 16 17  1  0
 17 18  1  0
 18 19  1  0
 19 20  1  6
 20 21  2  0
 21 22  1  0
 22 23  2  0
 23 24  1  0
 24 25  1  0
 24 26  2  0
 14 27  2  0
 27 28  1  0
  4 29  1  0
 29 30  2  0
 30 31  1  0
 31 32  2  0
 31  2  1  0
 28  8  2  0
 28 11  1  0
 19 15  1  0
 26 20  1  0
M  END
>  <Compound_ID>  (555) 
CHEMBL4111779

>  <Molecule Name>  (555) 
nan

>  <Molecular Weight>  (555) 
433.45

>  <AlogP>  (555) 
2.56

>  <Smiles>  (555) 
Cn1nc(C(=O)Nc2cnn3ccc(N4CCC[C@@H]4c4cccc(F)c4)nc23)ccc1=O

>  <Standard Type>  (555) 
IC50

>  <Standard Relation>  (555) 
'='

>  <Standard Units>  (555) 
nM

>  <Standard Value>  (555) 
19.2

>  <Assay ChEMBL ID>  (555) 
CHEMBL3887076

>  <Assay Description>  (555) 
ELISA Assay: An enzyme-linked immunosorbant assay (ELISA) was used to assess TrkA kinase activity in the presence of inhibitors. Immulon 4HBX 384-well microtiter plates (Thermo part #8755) were coated with a 0.025 mg/mL solution of poly (Glu, Ala, Tyr; 6:3:1; Sigma P3899). Various concentrations of test compound, 2.5 nM TrkA (Invitrogen Corp., histidine-tagged recombinant human TrkA, cytoplasmic domain), and 500 uM ATP were incubated for 25 minutes at ambient temperature in the coated plates while shaking. The assay buffer consisted of 25 mM MOPS pH 7.5, 0.005% (v/v) Triton X-100 and 5 mM MgCl2. The reaction mixture was removed from the plate by washing with PBS containing 0.1% (v/v) Tween 20. The phosphorylated reaction product was detected using 0.2 ug/mL of a phosphotyrosine specific monoclonal antibody (clone PY20) conjugated to horseradish peroxidase in conjunction with the TMB Peroxidase Substrate System (KPL).

>  <BAO Format ID>  (555) 
BAO_0000357

>  <BAO Label>  (555) 
single protein format

>  <Assay Organism>  (555) 
None

>  <Target ChEMBL ID>  (555) 
CHEMBL2815

>  <Target Name>  (555) 
Nerve growth factor receptor Trk-A

>  <Target Organism>  (555) 
Homo sapiens

>  <Target Type>  (555) 
SINGLE PROTEIN

>  <Document ChEMBL ID>  (555) 
CHEMBL3886151

>  <Source Description>  (555) 
BindingDB Database

>  <Document Journal>  (555) 
nan

>  <Document Year>  (555) 
2014.0

>  <Active>  (555) 
1.0

>  <bits>  (555) 
<rdkit.DataStructs.cDataStructs.ExplicitBitVect object at 0x00000159F5471620>

>  <Group>  (555) 
G2

$$$$

     RDKit          2D

 34 37  0  0  0  0  0  0  0  0999 V2000
   -2.7729  -10.0617    0.0000 O   0  0  0  0  0  0  0  0  0  0  0  0
   -1.3463   -9.5982    0.0000 C   0  0  0  0  0  0  0  0  0  0  0  0
   -0.2316  -10.6019    0.0000 C   0  0  0  0  0  0  0  0  0  0  0  0
   -0.5434  -12.0691    0.0000 C   0  0  0  0  0  0  0  0  0  0  0  0
   -1.9700  -12.5326    0.0000 C   0  0  0  0  0  0  0  0  0  0  0  0
   -2.2819  -13.9999    0.0000 C   0  0  0  0  0  0  0  0  0  0  0  0
   -1.1672  -15.0036    0.0000 C   0  0  0  0  0  0  0  0  0  0  0  0
   -1.4790  -16.4708    0.0000 C   0  0  0  0  0  0  0  0  0  0  0  0
   -1.7909  -17.9380    0.0000 F   0  0  0  0  0  0  0  0  0  0  0  0
   -2.9463  -16.1589    0.0000 F   0  0  0  0  0  0  0  0  0  0  0  0
   -0.0118  -16.7827    0.0000 F   0  0  0  0  0  0  0  0  0  0  0  0
    0.2594  -14.5400    0.0000 C   0  0  0  0  0  0  0  0  0  0  0  0
    0.5713  -13.0728    0.0000 C   0  0  0  0  0  0  0  0  0  0  0  0
   -1.0344   -8.1310    0.0000 N   0  0  0  0  0  0  0  0  0  0  0  0
   -2.1491   -7.1273    0.0000 C   0  0  0  0  0  0  0  0  0  0  0  0
   -1.8373   -5.6601    0.0000 C   0  0  0  0  0  0  0  0  0  0  0  0
   -2.9520   -4.6564    0.0000 C   0  0  0  0  0  0  0  0  0  0  0  0
   -2.6401   -3.1891    0.0000 C   0  0  0  0  0  0  0  0  0  0  0  0
   -3.7548   -2.1855    0.0000 O   0  0  0  0  0  0  0  0  0  0  0  0
   -1.2135   -2.7256    0.0000 C   0  0  0  0  0  0  0  0  0  0  0  0
   -0.0000   -3.6073    0.0000 C   0  0  0  0  0  0  0  0  0  0  0  0
    1.2135   -2.7256    0.0000 N   0  0  0  0  0  0  0  0  0  0  0  0
    2.6401   -3.1891    0.0000 C   0  0  0  0  0  0  0  0  0  0  0  0
    2.9520   -4.6564    0.0000 C   0  0  0  0  0  0  0  0  0  0  0  0
    4.3786   -5.1199    0.0000 O   0  0  0  0  0  0  0  0  0  0  0  0
    0.7500   -1.2990    0.0000 C   0  0  0  0  0  0  0  0  0  0  0  0
    1.5000    0.0000    0.0000 C   0  0  0  0  0  0  0  0  0  0  0  0
    0.7500    1.2990    0.0000 C   0  0  0  0  0  0  0  0  0  0  0  0
   -0.7500    1.2990    0.0000 N   0  0  0  0  0  0  0  0  0  0  0  0
   -1.5000    0.0000    0.0000 C   0  0  0  0  0  0  0  0  0  0  0  0
   -0.7500   -1.2990    0.0000 C   0  0  0  0  0  0  0  0  0  0  0  0
   -4.3786   -5.1199    0.0000 C   0  0  0  0  0  0  0  0  0  0  0  0
   -4.6904   -6.5871    0.0000 C   0  0  0  0  0  0  0  0  0  0  0  0
   -3.5757   -7.5908    0.0000 N   0  0  0  0  0  0  0  0  0  0  0  0
  1  2  2  0
  2  3  1  0
  3  4  1  0
  4  5  2  0
  5  6  1  0
  6  7  2  0
  7  8  1  0
  8  9  1  0
  8 10  1  0
  8 11  1  0
  7 12  1  0
 12 13  2  0
  2 14  1  0
 14 15  1  0
 15 16  2  0
 16 17  1  0
 17 18  1  0
 18 19  2  0
 18 20  1  0
 20 21  2  0
 21 22  1  0
 22 23  1  0
 23 24  1  0
 24 25  1  0
 22 26  1  0
 26 27  2  0
 27 28  1  0
 28 29  2  0
 29 30  1  0
 30 31  2  0
 17 32  2  0
 32 33  1  0
 33 34  2  0
 13  4  1  0
 34 15  1  0
 31 20  1  0
 31 26  1  0
M  END
>  <Compound_ID>  (556) 
CHEMBL3906413

>  <Molecule Name>  (556) 
nan

>  <Molecular Weight>  (556) 
468.44

>  <AlogP>  (556) 
3.85

>  <Smiles>  (556) 
O=C(Cc1ccc(C(F)(F)F)cc1)Nc1cc(C(=O)c2cn(CCO)c3ccncc23)ccn1

>  <Standard Type>  (556) 
IC50

>  <Standard Relation>  (556) 
'='

>  <Standard Units>  (556) 
nM

>  <Standard Value>  (556) 
20.2

>  <Assay ChEMBL ID>  (556) 
CHEMBL3887111

>  <Assay Description>  (556) 
HTRF Assay: Isolated TRK Enzyme assays use the HTRF KinEASE-TK kit (Cisbio Cat#62TK0PEJ) with recombinant His-tagged cytoplasmic domains of each TRK receptor sourced from Invitrogen (see table below). This activity-assay measures the phosphorylation of tyrosine residues within a substrate from the HTRF kit which has been validated by Cisbio for a variety of tyrosine kinases including the TRK receptors.Assay Details: Invitrogen Amino FAC FAC Assay ReactionTarget Cat# acids enzyme ATP TimeTRKA PV3144 aa 441-4 nM 40 uM 35 min (NTRK1) 796 TRKB PV3616 aa 526-1 nM 1.4 uM 40 min (NTRK2) 838 TRKC PV3617 aa 510- 10 nM 15 uM 30 min (NTRK3) 8250.5 mM stock solutions of test compounds are prepared and serially diluted in 100% DMSO. A standard curve using the compound of Example 135 disclosed in WO2005/116035 of 150 uM is also prepared on each test plate. High percentage effect (HPE) is defined by 150 uM.

>  <BAO Format ID>  (556) 
BAO_0000357

>  <BAO Label>  (556) 
single protein format

>  <Assay Organism>  (556) 
None

>  <Target ChEMBL ID>  (556) 
CHEMBL2815

>  <Target Name>  (556) 
Nerve growth factor receptor Trk-A

>  <Target Organism>  (556) 
Homo sapiens

>  <Target Type>  (556) 
SINGLE PROTEIN

>  <Document ChEMBL ID>  (556) 
CHEMBL3886170

>  <Source Description>  (556) 
BindingDB Database

>  <Document Journal>  (556) 
nan

>  <Document Year>  (556) 
2015.0

>  <Active>  (556) 
1.0

>  <bits>  (556) 
<rdkit.DataStructs.cDataStructs.ExplicitBitVect object at 0x00000159F5470DD0>

>  <Group>  (556) 
G2

$$$$

     RDKit          2D

 35 39  0  0  0  0  0  0  0  0999 V2000
  -10.9341    7.7749    0.0000 C   0  0  0  0  0  0  0  0  0  0  0  0
  -11.2460    6.3076    0.0000 O   0  0  0  0  0  0  0  0  0  0  0  0
  -10.1313    5.3039    0.0000 C   0  0  0  0  0  0  0  0  0  0  0  0
   -8.7047    5.7675    0.0000 C   0  0  0  0  0  0  0  0  0  0  0  0
   -7.5900    4.7638    0.0000 C   0  0  0  0  0  0  0  0  0  0  0  0
   -7.9018    3.2966    0.0000 C   0  0  0  0  0  0  0  0  0  0  0  0
   -6.7871    2.2929    0.0000 C   0  0  0  0  0  0  0  0  0  0  0  0
   -7.0990    0.8256    0.0000 O   0  0  0  0  0  0  0  0  0  0  0  0
   -5.9843   -0.1781    0.0000 C   0  0  0  0  0  0  0  0  0  0  0  0
   -6.2961   -1.6453    0.0000 C   0  0  0  0  0  0  0  0  0  0  0  0
   -5.1814   -2.6490    0.0000 C   0  0  0  0  0  0  0  0  0  0  0  0
   -3.7548   -2.1855    0.0000 C   0  0  0  0  0  0  0  0  0  0  0  0
   -2.6401   -3.1891    0.0000 C   0  0  0  0  0  0  0  0  0  0  0  0
   -1.2135   -2.7256    0.0000 N   0  0  0  0  0  0  0  0  0  0  0  0
   -0.0000   -3.6073    0.0000 C   0  0  0  0  0  0  0  0  0  0  0  0
    0.0000   -5.1073    0.0000 N   0  0  0  0  0  0  0  0  0  0  0  0
    1.2135   -2.7256    0.0000 N   0  0  0  0  0  0  0  0  0  0  0  0
    0.7500   -1.2990    0.0000 C   0  0  0  0  0  0  0  0  0  0  0  0
    1.5000    0.0000    0.0000 C   0  0  0  0  0  0  0  0  0  0  0  0
    0.7500    1.2990    0.0000 C   0  0  0  0  0  0  0  0  0  0  0  0
    1.5000    2.5981    0.0000 C   0  0  0  0  0  0  0  0  0  0  0  0
    3.0000    2.5981    0.0000 C   0  0  0  0  0  0  0  0  0  0  0  0
    3.7500    3.8971    0.0000 C   0  0  0  0  0  0  0  0  0  0  0  0
    3.0000    5.1962    0.0000 C   0  0  0  0  0  0  0  0  0  0  0  0
    1.5000    5.1962    0.0000 N   0  0  0  0  0  0  0  0  0  0  0  0
    0.7500    3.8971    0.0000 C   0  0  0  0  0  0  0  0  0  0  0  0
   -0.7500    1.2990    0.0000 C   0  0  0  0  0  0  0  0  0  0  0  0
   -1.5000    0.0000    0.0000 N   0  0  0  0  0  0  0  0  0  0  0  0
   -0.7500   -1.2990    0.0000 C   0  0  0  0  0  0  0  0  0  0  0  0
   -3.4430   -0.7182    0.0000 C   0  0  0  0  0  0  0  0  0  0  0  0
   -4.5577    0.2855    0.0000 C   0  0  0  0  0  0  0  0  0  0  0  0
   -4.2458    1.7527    0.0000 O   0  0  0  0  0  0  0  0  0  0  0  0
   -5.3605    2.7564    0.0000 C   0  0  0  0  0  0  0  0  0  0  0  0
   -9.3284    2.8330    0.0000 C   0  0  0  0  0  0  0  0  0  0  0  0
  -10.4431    3.8367    0.0000 N   0  0  0  0  0  0  0  0  0  0  0  0
  1  2  1  0
  2  3  1  0
  3  4  2  0
  4  5  1  0
  5  6  2  0
  6  7  1  0
  7  8  1  0
  8  9  1  0
  9 10  2  0
 10 11  1  0
 11 12  2  0
 12 13  1  0
 13 14  1  0
 14 15  1  0
 15 16  1  0
 15 17  2  0
 17 18  1  0
 18 19  2  0
 19 20  1  0
 20 21  1  0
 21 22  2  0
 22 23  1  0
 23 24  2  0
 24 25  1  0
 25 26  2  0
 20 27  2  0
 27 28  1  0
 28 29  2  0
 12 30  1  0
 30 31  2  0
 31 32  1  0
 32 33  1  0
  6 34  1  0
 34 35  2  0
 35  3  1  0
 31  9  1  0
 29 14  1  0
 29 18  1  0
 26 21  1  0
M  END
>  <Compound_ID>  (557) 
CHEMBL3673487

>  <Molecule Name>  (557) 
nan

>  <Molecular Weight>  (557) 
468.52

>  <AlogP>  (557) 
4.12

>  <Smiles>  (557) 
COc1ccc(COc2ccc(Cn3c(N)nc4cc(-c5cccnc5)cnc43)cc2OC)cn1

>  <Standard Type>  (557) 
IC50

>  <Standard Relation>  (557) 
'='

>  <Standard Units>  (557) 
nM

>  <Standard Value>  (557) 
5.0

>  <Assay ChEMBL ID>  (557) 
CHEMBL3887112

>  <Assay Description>  (557) 
Inhibition Assay: Reagents and consumables were purchased from Sigma Aldrich, Carna Biosciences, or Caliper Life Sciences. All assay reaction conditions for IC50 determinations were within the linear range with respect to time and enzyme concentration. In a 384 well polypropylene plate, TrkA (0.4 nM, Carna 08-186) was pre-incubated in a 100 mM Hepes-NaOH pH 7.5 buffer containing 0.01% Triton X-100, 10 mM MgCl2, 0.1% BSA, 1 mM DTT, 10 uM sodium orthovanadate and 10 uM beta-glycerophosphate and compound with a concentration of 2.5% DMSO for 15 minutes at room temperature. The reaction was initiated with an equal volume of peptide substrate (Caliper Life Sciences catalog no. 760430) and ATP in the aforementioned buffer. The final concentrations in the reaction were 200 pM TrkA, 1.5 uM peptide substrate and 55 uM ATP (ATP Km). The reaction was incubated at room temperature for 180 minutes and terminated with a buffer containing excess EDTA (100 mM Hepes-NaOH pH 7.5, 0.02% Brij.

>  <BAO Format ID>  (557) 
BAO_0000357

>  <BAO Label>  (557) 
single protein format

>  <Assay Organism>  (557) 
None

>  <Target ChEMBL ID>  (557) 
CHEMBL2815

>  <Target Name>  (557) 
Nerve growth factor receptor Trk-A

>  <Target Organism>  (557) 
Homo sapiens

>  <Target Type>  (557) 
SINGLE PROTEIN

>  <Document ChEMBL ID>  (557) 
CHEMBL3638818

>  <Source Description>  (557) 
BindingDB Database

>  <Document Journal>  (557) 
nan

>  <Document Year>  (557) 
2015.0

>  <Active>  (557) 
1.0

>  <bits>  (557) 
<rdkit.DataStructs.cDataStructs.ExplicitBitVect object at 0x00000159F5470C80>

>  <Group>  (557) 
G2

$$$$

     RDKit          2D

 34 37  0  0  0  0  0  0  0  0999 V2000
   -2.9520   -4.6564    0.0000 C   0  0  0  0  0  0  0  0  0  0  0  0
   -2.6401   -3.1891    0.0000 C   0  0  0  0  0  0  0  0  0  0  0  0
   -3.7548   -2.1855    0.0000 C   0  0  0  0  0  0  0  0  0  0  0  0
   -1.2135   -2.7256    0.0000 N   0  0  0  0  0  0  0  0  0  0  0  0
   -0.0000   -3.6073    0.0000 C   0  0  0  0  0  0  0  0  0  0  0  0
    1.2135   -2.7256    0.0000 C   0  0  0  0  0  0  0  0  0  0  0  0
    2.6401   -3.1891    0.0000 C   0  0  0  0  0  0  0  0  0  0  0  0
    3.7548   -2.1855    0.0000 O   0  0  0  0  0  0  0  0  0  0  0  0
    2.9520   -4.6564    0.0000 C   0  0  0  0  0  0  0  0  0  0  0  0
    1.8373   -5.6601    0.0000 C   0  0  0  0  0  0  0  0  0  0  0  0
    2.1491   -7.1273    0.0000 C   0  0  0  0  0  0  0  0  0  0  0  0
    3.5757   -7.5908    0.0000 N   0  0  0  0  0  0  0  0  0  0  0  0
    4.6904   -6.5871    0.0000 C   0  0  0  0  0  0  0  0  0  0  0  0
    6.1170   -7.0506    0.0000 N   0  0  0  0  0  0  0  0  0  0  0  0
    6.4289   -8.5179    0.0000 C   0  0  0  0  0  0  0  0  0  0  0  0
    5.3142   -9.5216    0.0000 O   0  0  0  0  0  0  0  0  0  0  0  0
    7.8555   -8.9814    0.0000 C   0  0  0  0  0  0  0  0  0  0  0  0
    8.1673  -10.4486    0.0000 C   0  0  0  0  0  0  0  0  0  0  0  0
    9.5377  -11.0587    0.0000 N   0  0  0  0  0  0  0  0  0  0  0  0
    9.3809  -12.5505    0.0000 C   0  0  0  0  0  0  0  0  0  0  0  0
   10.4956  -13.5542    0.0000 C   0  0  0  0  0  0  0  0  0  0  0  0
    9.4919  -14.6689    0.0000 C   0  0  0  0  0  0  0  0  0  0  0  0
   11.4993  -12.4395    0.0000 C   0  0  0  0  0  0  0  0  0  0  0  0
   11.6103  -14.5579    0.0000 C   0  0  0  0  0  0  0  0  0  0  0  0
    7.9136  -12.8624    0.0000 N   0  0  0  0  0  0  0  0  0  0  0  0
    7.1636  -11.5633    0.0000 N   0  0  0  0  0  0  0  0  0  0  0  0
    5.6719  -11.4065    0.0000 C   0  0  0  0  0  0  0  0  0  0  0  0
    4.3786   -5.1199    0.0000 C   0  0  0  0  0  0  0  0  0  0  0  0
    0.7500   -1.2990    0.0000 C   0  0  0  0  0  0  0  0  0  0  0  0
    1.5000    0.0000    0.0000 C   0  0  0  0  0  0  0  0  0  0  0  0
    0.7500    1.2990    0.0000 N   0  0  0  0  0  0  0  0  0  0  0  0
   -0.7500    1.2990    0.0000 C   0  0  0  0  0  0  0  0  0  0  0  0
   -1.5000    0.0000    0.0000 C   0  0  0  0  0  0  0  0  0  0  0  0
   -0.7500   -1.2990    0.0000 C   0  0  0  0  0  0  0  0  0  0  0  0
  1  2  1  0
  2  3  1  0
  2  4  1  0
  4  5  1  0
  5  6  2  0
  6  7  1  0
  7  8  2  0
  7  9  1  0
  9 10  2  0
 10 11  1  0
 11 12  2  0
 12 13  1  0
 13 14  1  0
 14 15  1  0
 15 16  2  0
 15 17  1  0
 17 18  1  0
 18 19  2  0
 19 20  1  0
 20 21  1  0
 21 22  1  0
 21 23  1  0
 21 24  1  0
 20 25  2  0
 25 26  1  0
 26 27  1  0
 13 28  2  0
  6 29  1  0
 29 30  2  0
 30 31  1  0
 31 32  2  0
 32 33  1  0
 33 34  2  0
 34  4  1  0
 28  9  1  0
 34 29  1  0
 26 18  1  0
M  END
>  <Compound_ID>  (558) 
CHEMBL3890027

>  <Molecule Name>  (558) 
nan

>  <Molecular Weight>  (558) 
459.55

>  <AlogP>  (558) 
3.85

>  <Smiles>  (558) 
CC(C)n1cc(C(=O)c2ccnc(NC(=O)Cc3nc(C(C)(C)C)nn3C)c2)c2cnccc21

>  <Standard Type>  (558) 
IC50

>  <Standard Relation>  (558) 
'='

>  <Standard Units>  (558) 
nM

>  <Standard Value>  (558) 
36.1

>  <Assay ChEMBL ID>  (558) 
CHEMBL3887111

>  <Assay Description>  (558) 
HTRF Assay: Isolated TRK Enzyme assays use the HTRF KinEASE-TK kit (Cisbio Cat#62TK0PEJ) with recombinant His-tagged cytoplasmic domains of each TRK receptor sourced from Invitrogen (see table below). This activity-assay measures the phosphorylation of tyrosine residues within a substrate from the HTRF kit which has been validated by Cisbio for a variety of tyrosine kinases including the TRK receptors.Assay Details: Invitrogen Amino FAC FAC Assay ReactionTarget Cat# acids enzyme ATP TimeTRKA PV3144 aa 441-4 nM 40 uM 35 min (NTRK1) 796 TRKB PV3616 aa 526-1 nM 1.4 uM 40 min (NTRK2) 838 TRKC PV3617 aa 510- 10 nM 15 uM 30 min (NTRK3) 8250.5 mM stock solutions of test compounds are prepared and serially diluted in 100% DMSO. A standard curve using the compound of Example 135 disclosed in WO2005/116035 of 150 uM is also prepared on each test plate. High percentage effect (HPE) is defined by 150 uM.

>  <BAO Format ID>  (558) 
BAO_0000357

>  <BAO Label>  (558) 
single protein format

>  <Assay Organism>  (558) 
None

>  <Target ChEMBL ID>  (558) 
CHEMBL2815

>  <Target Name>  (558) 
Nerve growth factor receptor Trk-A

>  <Target Organism>  (558) 
Homo sapiens

>  <Target Type>  (558) 
SINGLE PROTEIN

>  <Document ChEMBL ID>  (558) 
CHEMBL3886170

>  <Source Description>  (558) 
BindingDB Database

>  <Document Journal>  (558) 
nan

>  <Document Year>  (558) 
2015.0

>  <Active>  (558) 
1.0

>  <bits>  (558) 
<rdkit.DataStructs.cDataStructs.ExplicitBitVect object at 0x00000159F5471E00>

>  <Group>  (558) 
G2

$$$$

     RDKit          2D

 31 35  0  0  0  0  0  0  0  0999 V2000
   -1.8373   -5.6601    0.0000 O   0  0  0  0  0  0  0  0  0  0  0  0
   -2.9520   -4.6564    0.0000 C   0  0  0  0  0  0  0  0  0  0  0  0
   -2.6401   -3.1891    0.0000 N   0  0  0  0  0  0  0  0  0  0  0  0
   -1.2135   -2.7256    0.0000 C   0  0  0  0  0  0  0  0  0  0  0  0
   -0.0000   -3.6073    0.0000 C   0  0  0  0  0  0  0  0  0  0  0  0
    1.2135   -2.7256    0.0000 N   0  0  0  0  0  0  0  0  0  0  0  0
    0.7500   -1.2990    0.0000 C   0  0  0  0  0  0  0  0  0  0  0  0
    1.5000    0.0000    0.0000 C   0  0  0  0  0  0  0  0  0  0  0  0
    0.7500    1.2990    0.0000 C   0  0  0  0  0  0  0  0  0  0  0  0
   -0.7500    1.2990    0.0000 C   0  0  0  0  0  0  0  0  0  0  0  0
   -1.5000    2.5981    0.0000 N   0  0  0  0  0  0  0  0  0  0  0  0
   -2.9918    2.7549    0.0000 C   0  0  0  0  0  0  0  0  0  0  0  0
   -3.3037    4.2221    0.0000 C   0  0  0  0  0  0  0  0  0  0  0  0
   -2.0046    4.9721    0.0000 C   0  0  0  0  0  0  0  0  0  0  0  0
   -0.8899    3.9684    0.0000 C   0  0  0  0  0  0  0  0  0  0  0  0
    0.5773    4.2803    0.0000 C   0  0  0  0  0  0  0  0  0  0  0  0
    1.5810    3.1655    0.0000 C   0  0  0  0  0  0  0  0  0  0  0  0
    3.0482    3.4774    0.0000 C   0  0  0  0  0  0  0  0  0  0  0  0
    4.0519    2.3627    0.0000 F   0  0  0  0  0  0  0  0  0  0  0  0
    3.5118    4.9040    0.0000 C   0  0  0  0  0  0  0  0  0  0  0  0
    2.5081    6.0187    0.0000 C   0  0  0  0  0  0  0  0  0  0  0  0
    1.0409    5.7068    0.0000 C   0  0  0  0  0  0  0  0  0  0  0  0
    0.0372    6.8216    0.0000 F   0  0  0  0  0  0  0  0  0  0  0  0
   -1.5000    0.0000    0.0000 N   0  0  0  0  0  0  0  0  0  0  0  0
   -0.7500   -1.2990    0.0000 N   0  0  0  0  0  0  0  0  0  0  0  0
   -4.3786   -5.1199    0.0000 N   0  0  0  0  0  0  0  0  0  0  0  0
   -5.7151   -4.4389    0.0000 C   0  0  0  0  0  0  0  0  0  0  0  0
   -6.3961   -5.7754    0.0000 C   0  0  0  0  0  0  0  0  0  0  0  0
   -7.8226   -6.2389    0.0000 C   0  0  0  0  0  0  0  0  0  0  0  0
   -8.9374   -5.2352    0.0000 O   0  0  0  0  0  0  0  0  0  0  0  0
   -5.0595   -6.4564    0.0000 C   0  0  0  0  0  0  0  0  0  0  0  0
  1  2  2  0
  2  3  1  0
  3  4  1  0
  4  5  2  0
  5  6  1  0
  6  7  2  0
  7  8  1  0
  8  9  2  0
  9 10  1  0
 10 11  1  0
 11 12  1  0
 12 13  1  0
 13 14  1  0
 14 15  1  0
 15 16  1  6
 16 17  2  0
 17 18  1  0
 18 19  1  0
 18 20  2  0
 20 21  1  0
 21 22  2  0
 22 23  1  0
 10 24  2  0
 24 25  1  0
  2 26  1  0
 26 27  1  0
 27 28  1  0
 28 29  1  0
 29 30  1  0
 28 31  1  0
 25  4  1  0
 31 26  1  0
 25  7  1  0
 15 11  1  0
 22 16  1  0
M  END
>  <Compound_ID>  (559) 
CHEMBL4111291

>  <Molecule Name>  (559) 
nan

>  <Molecular Weight>  (559) 
428.44

>  <AlogP>  (559) 
2.81

>  <Smiles>  (559) 
O=C(Nc1cnc2ccc(N3CCC[C@@H]3c3cc(F)ccc3F)nn12)N1CC(CO)C1

>  <Standard Type>  (559) 
IC50

>  <Standard Relation>  (559) 
'='

>  <Standard Units>  (559) 
nM

>  <Standard Value>  (559) 
14.0

>  <Assay ChEMBL ID>  (559) 
CHEMBL3887826

>  <Assay Description>  (559) 
ELISA Assay: An enzyme-linked immunosorbant assay (ELISA) was used to assess TrkA kinase activity in the presence of inhibitors. Immulon 4HBX 384-well microtiter plates (Thermo part #8755) were coated with a 0.025 mg/mL solution of poly (Glu, Ala, Tyr; 6:3:1; Sigma P3899). Various concentrations of test compound, 2.5 nM TrkA (Invitrogen Corp., histidine-tagged recombinant human TrkA, cytoplasmic domain), and 500 uM ATP were incubated for 25 minutes at ambient temperature in the coated plates while shaking. The assay buffer consisted of 25 mM MOPS pH 7.5, 0.005% (v/v) Triton X-100 and 5 mM MgCl2. The reaction mixture was removed from the plate by washing with PBS containing 0.1% (v/v) Tween 20. The phosphorylated reaction product was detected using 0.2 ug/mL of a phosphotyrosine specific monoclonal antibody (clone PY20) conjugated to horseradish peroxidase in conjunction with the TMB Peroxidase Substrate System (KPL).

>  <BAO Format ID>  (559) 
BAO_0000357

>  <BAO Label>  (559) 
single protein format

>  <Assay Organism>  (559) 
None

>  <Target ChEMBL ID>  (559) 
CHEMBL2815

>  <Target Name>  (559) 
Nerve growth factor receptor Trk-A

>  <Target Organism>  (559) 
Homo sapiens

>  <Target Type>  (559) 
SINGLE PROTEIN

>  <Document ChEMBL ID>  (559) 
CHEMBL3886465

>  <Source Description>  (559) 
BindingDB Database

>  <Document Journal>  (559) 
nan

>  <Document Year>  (559) 
2016.0

>  <Active>  (559) 
1.0

>  <bits>  (559) 
<rdkit.DataStructs.cDataStructs.ExplicitBitVect object at 0x00000159F5473ED0>

>  <Group>  (559) 
G2

$$$$

     RDKit          2D

 36 40  0  0  0  0  0  0  0  0999 V2000
   -2.9520   -4.6564    0.0000 C   0  0  0  0  0  0  0  0  0  0  0  0
   -2.6401   -3.1891    0.0000 C   0  0  0  0  0  0  0  0  0  0  0  0
   -3.7548   -2.1855    0.0000 C   0  0  0  0  0  0  0  0  0  0  0  0
   -1.2135   -2.7256    0.0000 N   0  0  0  0  0  0  0  0  0  0  0  0
   -0.0000   -3.6073    0.0000 C   0  0  0  0  0  0  0  0  0  0  0  0
    1.2135   -2.7256    0.0000 C   0  0  0  0  0  0  0  0  0  0  0  0
    2.6401   -3.1891    0.0000 C   0  0  0  0  0  0  0  0  0  0  0  0
    3.7548   -2.1855    0.0000 O   0  0  0  0  0  0  0  0  0  0  0  0
    2.9520   -4.6564    0.0000 C   0  0  0  0  0  0  0  0  0  0  0  0
    1.8373   -5.6601    0.0000 C   0  0  0  0  0  0  0  0  0  0  0  0
    2.1491   -7.1273    0.0000 N   0  0  0  0  0  0  0  0  0  0  0  0
    3.5757   -7.5908    0.0000 C   0  0  0  0  0  0  0  0  0  0  0  0
    4.6904   -6.5871    0.0000 C   0  0  0  0  0  0  0  0  0  0  0  0
    6.1170   -7.0506    0.0000 N   0  0  0  0  0  0  0  0  0  0  0  0
    6.4289   -8.5179    0.0000 C   0  0  0  0  0  0  0  0  0  0  0  0
    5.3142   -9.5216    0.0000 O   0  0  0  0  0  0  0  0  0  0  0  0
    7.8555   -8.9814    0.0000 C   0  0  0  0  0  0  0  0  0  0  0  0
    8.1673  -10.4486    0.0000 C   0  0  0  0  0  0  0  0  0  0  0  0
    7.1636  -11.5633    0.0000 C   0  0  0  0  0  0  0  0  0  0  0  0
    7.9136  -12.8624    0.0000 N   0  0  0  0  0  0  0  0  0  0  0  0
    9.3809  -12.5505    0.0000 N   0  0  0  0  0  0  0  0  0  0  0  0
   10.4956  -13.5542    0.0000 C   0  0  0  0  0  0  0  0  0  0  0  0
   10.9591  -14.9808    0.0000 C   0  0  0  0  0  0  0  0  0  0  0  0
   11.9628  -13.8661    0.0000 C   0  0  0  0  0  0  0  0  0  0  0  0
    9.5377  -11.0587    0.0000 C   0  0  0  0  0  0  0  0  0  0  0  0
   10.8367  -10.3087    0.0000 C   0  0  0  0  0  0  0  0  0  0  0  0
   12.1357   -9.5587    0.0000 F   0  0  0  0  0  0  0  0  0  0  0  0
   11.5867  -11.6078    0.0000 F   0  0  0  0  0  0  0  0  0  0  0  0
   10.0867   -9.0097    0.0000 F   0  0  0  0  0  0  0  0  0  0  0  0
    4.3786   -5.1199    0.0000 C   0  0  0  0  0  0  0  0  0  0  0  0
    0.7500   -1.2990    0.0000 C   0  0  0  0  0  0  0  0  0  0  0  0
    1.5000    0.0000    0.0000 C   0  0  0  0  0  0  0  0  0  0  0  0
    0.7500    1.2990    0.0000 N   0  0  0  0  0  0  0  0  0  0  0  0
   -0.7500    1.2990    0.0000 C   0  0  0  0  0  0  0  0  0  0  0  0
   -1.5000    0.0000    0.0000 N   0  0  0  0  0  0  0  0  0  0  0  0
   -0.7500   -1.2990    0.0000 C   0  0  0  0  0  0  0  0  0  0  0  0
  1  2  1  0
  2  3  1  0
  2  4  1  0
  4  5  1  0
  5  6  2  0
  6  7  1  0
  7  8  2  0
  7  9  1  0
  9 10  2  0
 10 11  1  0
 11 12  2  0
 12 13  1  0
 13 14  1  0
 14 15  1  0
 15 16  2  0
 15 17  1  0
 17 18  1  0
 18 19  1  0
 19 20  2  0
 20 21  1  0
 21 22  1  0
 22 23  1  0
 23 24  1  0
 21 25  1  0
 25 26  1  0
 26 27  1  0
 26 28  1  0
 26 29  1  0
 13 30  2  0
  6 31  1  0
 31 32  2  0
 32 33  1  0
 33 34  2  0
 34 35  1  0
 35 36  2  0
 36  4  1  0
 30  9  1  0
 36 31  1  0
 25 18  2  0
 24 22  1  0
M  END
>  <Compound_ID>  (560) 
CHEMBL3666311

>  <Molecule Name>  (560) 
nan

>  <Molecular Weight>  (560) 
497.48

>  <AlogP>  (560) 
4.37

>  <Smiles>  (560) 
CC(C)n1cc(C(=O)c2cncc(NC(=O)Cc3cnn(C4CC4)c3C(F)(F)F)c2)c2cncnc21

>  <Standard Type>  (560) 
IC50

>  <Standard Relation>  (560) 
'='

>  <Standard Units>  (560) 
nM

>  <Standard Value>  (560) 
39.1

>  <Assay ChEMBL ID>  (560) 
CHEMBL3887033

>  <Assay Description>  (560) 
Enzyme Assay: Isolated TRK Enzyme assays use the HTRF KinEASE-TK kit (Cisbio Cat# 62TK0PEJ) with recombinant His-tagged cytoplasmic domains of each TRK receptor sourced from Invitrogen (see table below). This activity-assay measures the phosphorylation of tyrosine residues within a substrate from the HTRF kit which has been validated by Cisbio for a variety of tyrosine kinases including the TRK receptors. Assay details: Target:TRKA; Invitrogen Cat# PV3144; Amino acids:aa 441-796; FAC enzyme:4nM; FAC ATP:40uM; Assay Reaction Time:35min.

>  <BAO Format ID>  (560) 
BAO_0000357

>  <BAO Label>  (560) 
single protein format

>  <Assay Organism>  (560) 
None

>  <Target ChEMBL ID>  (560) 
CHEMBL2815

>  <Target Name>  (560) 
Nerve growth factor receptor Trk-A

>  <Target Organism>  (560) 
Homo sapiens

>  <Target Type>  (560) 
SINGLE PROTEIN

>  <Document ChEMBL ID>  (560) 
CHEMBL3639348

>  <Source Description>  (560) 
BindingDB Database

>  <Document Journal>  (560) 
nan

>  <Document Year>  (560) 
2014.0

>  <Active>  (560) 
1.0

>  <bits>  (560) 
<rdkit.DataStructs.cDataStructs.ExplicitBitVect object at 0x00000159F5473840>

>  <Group>  (560) 
G2

$$$$

     RDKit          2D

 33 37  0  0  0  0  0  0  0  0999 V2000
   -6.7500   -6.4952    0.0000 C   0  0  0  0  0  0  0  0  0  0  0  0
   -5.2500   -6.4952    0.0000 C   0  0  0  0  0  0  0  0  0  0  0  0
   -4.5000   -5.1962    0.0000 C   0  0  0  0  0  0  0  0  0  0  0  0
   -3.0000   -5.1962    0.0000 C   0  0  0  0  0  0  0  0  0  0  0  0
   -2.2500   -6.4952    0.0000 C   0  0  0  0  0  0  0  0  0  0  0  0
   -0.7500   -6.4952    0.0000 S   0  0  0  0  0  0  0  0  0  0  0  0
   -0.7500   -4.9952    0.0000 O   0  0  0  0  0  0  0  0  0  0  0  0
   -0.7500   -7.9952    0.0000 O   0  0  0  0  0  0  0  0  0  0  0  0
    0.7500   -6.4952    0.0000 N   0  0  0  0  0  0  0  0  0  0  0  0
    1.5000   -5.1962    0.0000 C   0  0  0  0  0  0  0  0  0  0  0  0
    3.0000   -5.1962    0.0000 C   0  0  0  0  0  0  0  0  0  0  0  0
    3.7500   -3.8971    0.0000 C   0  0  0  0  0  0  0  0  0  0  0  0
    5.2500   -3.8971    0.0000 N   0  0  0  0  0  0  0  0  0  0  0  0
    3.0000   -2.5981    0.0000 C   0  0  0  0  0  0  0  0  0  0  0  0
    1.5000   -2.5981    0.0000 C   0  0  0  0  0  0  0  0  0  0  0  0
    0.7500   -1.2990    0.0000 C   0  0  0  0  0  0  0  0  0  0  0  0
    1.5000    0.0000    0.0000 C   0  0  0  0  0  0  0  0  0  0  0  0
    0.7500    1.2990    0.0000 N   0  0  0  0  0  0  0  0  0  0  0  0
   -0.7500    1.2990    0.0000 C   0  0  0  0  0  0  0  0  0  0  0  0
   -1.7537    2.4138    0.0000 N   0  0  0  0  0  0  0  0  0  0  0  0
   -3.1240    1.8037    0.0000 C   0  0  0  0  0  0  0  0  0  0  0  0
   -2.9672    0.3119    0.0000 C   0  0  0  0  0  0  0  0  0  0  0  0
   -4.0819   -0.6918    0.0000 C   0  0  0  0  0  0  0  0  0  0  0  0
   -5.5085   -0.2283    0.0000 C   0  0  0  0  0  0  0  0  0  0  0  0
   -6.6232   -1.2320    0.0000 C   0  0  0  0  0  0  0  0  0  0  0  0
   -6.3114   -2.6992    0.0000 N   0  0  0  0  0  0  0  0  0  0  0  0
   -4.8848   -3.1627    0.0000 C   0  0  0  0  0  0  0  0  0  0  0  0
   -3.7701   -2.1590    0.0000 C   0  0  0  0  0  0  0  0  0  0  0  0
   -1.5000    0.0000    0.0000 C   0  0  0  0  0  0  0  0  0  0  0  0
   -0.7500   -1.2990    0.0000 C   0  0  0  0  0  0  0  0  0  0  0  0
    0.7500   -3.8971    0.0000 C   0  0  0  0  0  0  0  0  0  0  0  0
   -3.0000   -7.7942    0.0000 C   0  0  0  0  0  0  0  0  0  0  0  0
   -4.5000   -7.7942    0.0000 C   0  0  0  0  0  0  0  0  0  0  0  0
  1  2  1  0
  2  3  2  0
  3  4  1  0
  4  5  2  0
  5  6  1  0
  6  7  2  0
  6  8  2  0
  6  9  1  0
  9 10  1  0
 10 11  2  0
 11 12  1  0
 12 13  1  0
 12 14  2  0
 14 15  1  0
 15 16  1  0
 16 17  2  0
 17 18  1  0
 18 19  2  0
 19 20  1  0
 20 21  1  0
 21 22  2  0
 22 23  1  0
 23 24  2  0
 24 25  1  0
 25 26  2  0
 26 27  1  0
 27 28  2  0
 22 29  1  0
 29 30  2  0
 15 31  2  0
  5 32  1  0
 32 33  2  0
 33  2  1  0
 31 10  1  0
 30 16  1  0
 29 19  1  0
 28 23  1  0
M  END
>  <Compound_ID>  (561) 
CHEMBL2152286

>  <Molecule Name>  (561) 
nan

>  <Molecular Weight>  (561) 
455.54

>  <AlogP>  (561) 
4.98

>  <Smiles>  (561) 
Cc1ccc(S(=O)(=O)Nc2cc(N)cc(-c3cnc4[nH]cc(-c5ccncc5)c4c3)c2)cc1

>  <Standard Type>  (561) 
IC50

>  <Standard Relation>  (561) 
'='

>  <Standard Units>  (561) 
nM

>  <Standard Value>  (561) 
4.62

>  <Assay ChEMBL ID>  (561) 
CHEMBL2157053

>  <Assay Description>  (561) 
Inhibition of TRKA assessed as [gamma33P]ATP incorporation into substrate

>  <BAO Format ID>  (561) 
BAO_0000357

>  <BAO Label>  (561) 
single protein format

>  <Assay Organism>  (561) 
None

>  <Target ChEMBL ID>  (561) 
CHEMBL2815

>  <Target Name>  (561) 
Nerve growth factor receptor Trk-A

>  <Target Organism>  (561) 
Homo sapiens

>  <Target Type>  (561) 
SINGLE PROTEIN

>  <Document ChEMBL ID>  (561) 
CHEMBL2150859

>  <Source Description>  (561) 
Scientific Literature

>  <Document Journal>  (561) 
J Med Chem

>  <Document Year>  (561) 
2012.0

>  <Active>  (561) 
1.0

>  <bits>  (561) 
<rdkit.DataStructs.cDataStructs.ExplicitBitVect object at 0x00000159F5473140>

>  <Group>  (561) 
G2

$$$$

     RDKit          2D

 39 43  0  0  0  0  0  0  0  0999 V2000
  -10.9341    7.7749    0.0000 C   0  0  0  0  0  0  0  0  0  0  0  0
  -11.2460    6.3076    0.0000 O   0  0  0  0  0  0  0  0  0  0  0  0
  -10.1313    5.3039    0.0000 C   0  0  0  0  0  0  0  0  0  0  0  0
   -8.7047    5.7675    0.0000 C   0  0  0  0  0  0  0  0  0  0  0  0
   -7.5900    4.7638    0.0000 C   0  0  0  0  0  0  0  0  0  0  0  0
   -7.9018    3.2966    0.0000 C   0  0  0  0  0  0  0  0  0  0  0  0
   -6.7871    2.2929    0.0000 C   0  0  0  0  0  0  0  0  0  0  0  0
   -7.0990    0.8256    0.0000 O   0  0  0  0  0  0  0  0  0  0  0  0
   -5.9843   -0.1781    0.0000 C   0  0  0  0  0  0  0  0  0  0  0  0
   -6.2961   -1.6453    0.0000 C   0  0  0  0  0  0  0  0  0  0  0  0
   -5.1814   -2.6490    0.0000 C   0  0  0  0  0  0  0  0  0  0  0  0
   -3.7548   -2.1855    0.0000 C   0  0  0  0  0  0  0  0  0  0  0  0
   -2.6401   -3.1891    0.0000 C   0  0  0  0  0  0  0  0  0  0  0  0
   -1.2135   -2.7256    0.0000 N   0  0  0  0  0  0  0  0  0  0  0  0
   -0.0000   -3.6073    0.0000 C   0  0  0  0  0  0  0  0  0  0  0  0
    0.0000   -5.1073    0.0000 N   0  0  0  0  0  0  0  0  0  0  0  0
    1.2135   -2.7256    0.0000 N   0  0  0  0  0  0  0  0  0  0  0  0
    0.7500   -1.2990    0.0000 C   0  0  0  0  0  0  0  0  0  0  0  0
    1.5000    0.0000    0.0000 C   0  0  0  0  0  0  0  0  0  0  0  0
    0.7500    1.2990    0.0000 C   0  0  0  0  0  0  0  0  0  0  0  0
    1.5000    2.5981    0.0000 C   0  0  0  0  0  0  0  0  0  0  0  0
    3.0000    2.5981    0.0000 C   0  0  0  0  0  0  0  0  0  0  0  0
    3.7500    3.8971    0.0000 C   0  0  0  0  0  0  0  0  0  0  0  0
    3.0000    5.1962    0.0000 C   0  0  0  0  0  0  0  0  0  0  0  0
    3.7500    6.4952    0.0000 P   0  0  0  0  0  0  0  0  0  0  0  0
    2.4510    7.2452    0.0000 C   0  0  0  0  0  0  0  0  0  0  0  0
    5.0490    5.7452    0.0000 C   0  0  0  0  0  0  0  0  0  0  0  0
    4.5000    7.7942    0.0000 O   0  0  0  0  0  0  0  0  0  0  0  0
    1.5000    5.1962    0.0000 N   0  0  0  0  0  0  0  0  0  0  0  0
    0.7500    3.8971    0.0000 C   0  0  0  0  0  0  0  0  0  0  0  0
   -0.7500    1.2990    0.0000 C   0  0  0  0  0  0  0  0  0  0  0  0
   -1.5000    0.0000    0.0000 N   0  0  0  0  0  0  0  0  0  0  0  0
   -0.7500   -1.2990    0.0000 C   0  0  0  0  0  0  0  0  0  0  0  0
   -3.4430   -0.7182    0.0000 C   0  0  0  0  0  0  0  0  0  0  0  0
   -4.5577    0.2855    0.0000 C   0  0  0  0  0  0  0  0  0  0  0  0
   -4.2458    1.7527    0.0000 O   0  0  0  0  0  0  0  0  0  0  0  0
   -5.3605    2.7564    0.0000 C   0  0  0  0  0  0  0  0  0  0  0  0
   -9.3284    2.8330    0.0000 C   0  0  0  0  0  0  0  0  0  0  0  0
  -10.4431    3.8367    0.0000 C   0  0  0  0  0  0  0  0  0  0  0  0
  1  2  1  0
  2  3  1  0
  3  4  2  0
  4  5  1  0
  5  6  2  0
  6  7  1  0
  7  8  1  0
  8  9  1  0
  9 10  2  0
 10 11  1  0
 11 12  2  0
 12 13  1  0
 13 14  1  0
 14 15  1  0
 15 16  1  0
 15 17  2  0
 17 18  1  0
 18 19  2  0
 19 20  1  0
 20 21  1  0
 21 22  2  0
 22 23  1  0
 23 24  2  0
 24 25  1  0
 25 26  1  0
 25 27  1  0
 25 28  2  0
 24 29  1  0
 29 30  2  0
 20 31  2  0
 31 32  1  0
 32 33  2  0
 12 34  1  0
 34 35  2  0
 35 36  1  0
 36 37  1  0
  6 38  1  0
 38 39  2  0
 39  3  1  0
 35  9  1  0
 33 14  1  0
 33 18  1  0
 30 21  1  0
M  END
>  <Compound_ID>  (562) 
CHEMBL3673453

>  <Molecule Name>  (562) 
nan

>  <Molecular Weight>  (562) 
543.56

>  <AlogP>  (562) 
4.97

>  <Smiles>  (562) 
COc1ccc(COc2ccc(Cn3c(N)nc4cc(-c5ccc(P(C)(C)=O)nc5)cnc43)cc2OC)cc1

>  <Standard Type>  (562) 
IC50

>  <Standard Relation>  (562) 
'='

>  <Standard Units>  (562) 
nM

>  <Standard Value>  (562) 
0.5

>  <Assay ChEMBL ID>  (562) 
CHEMBL3887112

>  <Assay Description>  (562) 
Inhibition Assay: Reagents and consumables were purchased from Sigma Aldrich, Carna Biosciences, or Caliper Life Sciences. All assay reaction conditions for IC50 determinations were within the linear range with respect to time and enzyme concentration. In a 384 well polypropylene plate, TrkA (0.4 nM, Carna 08-186) was pre-incubated in a 100 mM Hepes-NaOH pH 7.5 buffer containing 0.01% Triton X-100, 10 mM MgCl2, 0.1% BSA, 1 mM DTT, 10 uM sodium orthovanadate and 10 uM beta-glycerophosphate and compound with a concentration of 2.5% DMSO for 15 minutes at room temperature. The reaction was initiated with an equal volume of peptide substrate (Caliper Life Sciences catalog no. 760430) and ATP in the aforementioned buffer. The final concentrations in the reaction were 200 pM TrkA, 1.5 uM peptide substrate and 55 uM ATP (ATP Km). The reaction was incubated at room temperature for 180 minutes and terminated with a buffer containing excess EDTA (100 mM Hepes-NaOH pH 7.5, 0.02% Brij.

>  <BAO Format ID>  (562) 
BAO_0000357

>  <BAO Label>  (562) 
single protein format

>  <Assay Organism>  (562) 
None

>  <Target ChEMBL ID>  (562) 
CHEMBL2815

>  <Target Name>  (562) 
Nerve growth factor receptor Trk-A

>  <Target Organism>  (562) 
Homo sapiens

>  <Target Type>  (562) 
SINGLE PROTEIN

>  <Document ChEMBL ID>  (562) 
CHEMBL3638818

>  <Source Description>  (562) 
BindingDB Database

>  <Document Journal>  (562) 
nan

>  <Document Year>  (562) 
2015.0

>  <Active>  (562) 
1.0

>  <bits>  (562) 
<rdkit.DataStructs.cDataStructs.ExplicitBitVect object at 0x00000159F5472E30>

>  <Group>  (562) 
G2

$$$$

     RDKit          2D

 35 39  0  0  0  0  0  0  0  0999 V2000
   -1.8373   -5.6601    0.0000 O   0  0  0  0  0  0  0  0  0  0  0  0
   -2.9520   -4.6564    0.0000 C   0  0  0  0  0  0  0  0  0  0  0  0
   -2.6401   -3.1891    0.0000 N   0  0  0  0  0  0  0  0  0  0  0  0
   -1.2135   -2.7256    0.0000 C   0  0  0  0  0  0  0  0  0  0  0  0
   -0.0000   -3.6073    0.0000 C   0  0  0  0  0  0  0  0  0  0  0  0
    1.2135   -2.7256    0.0000 N   0  0  0  0  0  0  0  0  0  0  0  0
    0.7500   -1.2990    0.0000 N   0  0  0  0  0  0  0  0  0  0  0  0
    1.5000    0.0000    0.0000 C   0  0  0  0  0  0  0  0  0  0  0  0
    0.7500    1.2990    0.0000 C   0  0  0  0  0  0  0  0  0  0  0  0
   -0.7500    1.2990    0.0000 C   0  0  0  0  0  0  0  0  0  0  0  0
   -1.5000    2.5981    0.0000 N   0  0  0  0  0  0  0  0  0  0  0  0
   -2.9918    2.7549    0.0000 C   0  0  0  0  0  0  0  0  0  0  0  0
   -3.3037    4.2221    0.0000 C   0  0  0  0  0  0  0  0  0  0  0  0
   -2.0046    4.9721    0.0000 C   0  0  0  0  0  0  0  0  0  0  0  0
   -0.8899    3.9684    0.0000 C   0  0  0  0  0  0  0  0  0  0  0  0
    0.5773    4.2803    0.0000 C   0  0  0  0  0  0  0  0  0  0  0  0
    1.5810    3.1655    0.0000 C   0  0  0  0  0  0  0  0  0  0  0  0
    3.0482    3.4774    0.0000 C   0  0  0  0  0  0  0  0  0  0  0  0
    4.0519    2.3627    0.0000 F   0  0  0  0  0  0  0  0  0  0  0  0
    3.5118    4.9040    0.0000 C   0  0  0  0  0  0  0  0  0  0  0  0
    2.5081    6.0187    0.0000 C   0  0  0  0  0  0  0  0  0  0  0  0
    1.0409    5.7068    0.0000 C   0  0  0  0  0  0  0  0  0  0  0  0
    0.0372    6.8216    0.0000 C   0  0  0  0  0  0  0  0  0  0  0  0
   -0.9665    7.9363    0.0000 F   0  0  0  0  0  0  0  0  0  0  0  0
    1.1519    7.8253    0.0000 F   0  0  0  0  0  0  0  0  0  0  0  0
   -1.0776    5.8179    0.0000 F   0  0  0  0  0  0  0  0  0  0  0  0
   -1.5000    0.0000    0.0000 N   0  0  0  0  0  0  0  0  0  0  0  0
   -0.7500   -1.2990    0.0000 C   0  0  0  0  0  0  0  0  0  0  0  0
   -4.3786   -5.1199    0.0000 N   0  0  0  0  0  0  0  0  0  0  0  0
   -5.4933   -4.1162    0.0000 C   0  0  0  0  0  0  0  0  0  0  0  0
   -6.9199   -4.5797    0.0000 C   0  0  0  0  0  0  0  0  0  0  0  0
   -7.2317   -6.0469    0.0000 C   0  0  0  0  0  0  0  0  0  0  0  0
   -6.1170   -7.0506    0.0000 C   0  0  0  0  0  0  0  0  0  0  0  0
   -6.4289   -8.5179    0.0000 O   0  0  0  0  0  0  0  0  0  0  0  0
   -4.6904   -6.5871    0.0000 C   0  0  0  0  0  0  0  0  0  0  0  0
  1  2  2  0
  2  3  1  0
  3  4  1  0
  4  5  1  0
  5  6  2  0
  6  7  1  0
  7  8  1  0
  8  9  2  0
  9 10  1  0
 10 11  1  0
 11 12  1  0
 12 13  1  0
 13 14  1  0
 14 15  1  0
 15 16  1  6
 16 17  2  0
 17 18  1  0
 18 19  1  0
 18 20  2  0
 20 21  1  0
 21 22  2  0
 22 23  1  0
 23 24  1  0
 23 25  1  0
 23 26  1  0
 10 27  2  0
 27 28  1  0
  2 29  1  0
 29 30  1  0
 30 31  1  0
 31 32  1  0
 32 33  1  0
 33 34  1  6
 33 35  1  0
 28  4  2  0
 35 29  1  0
 28  7  1  0
 15 11  1  0
 22 16  1  0
M  END
>  <Compound_ID>  (563) 
CHEMBL4115376

>  <Molecule Name>  (563) 
nan

>  <Molecular Weight>  (563) 
492.48

>  <AlogP>  (563) 
4.22

>  <Smiles>  (563) 
O=C(Nc1cnn2ccc(N3CCC[C@@H]3c3cc(F)ccc3C(F)(F)F)nc12)N1CCC[C@@H](O)C1

>  <Standard Type>  (563) 
IC50

>  <Standard Relation>  (563) 
'='

>  <Standard Units>  (563) 
nM

>  <Standard Value>  (563) 
14.0

>  <Assay ChEMBL ID>  (563) 
CHEMBL3887076

>  <Assay Description>  (563) 
ELISA Assay: An enzyme-linked immunosorbant assay (ELISA) was used to assess TrkA kinase activity in the presence of inhibitors. Immulon 4HBX 384-well microtiter plates (Thermo part #8755) were coated with a 0.025 mg/mL solution of poly (Glu, Ala, Tyr; 6:3:1; Sigma P3899). Various concentrations of test compound, 2.5 nM TrkA (Invitrogen Corp., histidine-tagged recombinant human TrkA, cytoplasmic domain), and 500 uM ATP were incubated for 25 minutes at ambient temperature in the coated plates while shaking. The assay buffer consisted of 25 mM MOPS pH 7.5, 0.005% (v/v) Triton X-100 and 5 mM MgCl2. The reaction mixture was removed from the plate by washing with PBS containing 0.1% (v/v) Tween 20. The phosphorylated reaction product was detected using 0.2 ug/mL of a phosphotyrosine specific monoclonal antibody (clone PY20) conjugated to horseradish peroxidase in conjunction with the TMB Peroxidase Substrate System (KPL).

>  <BAO Format ID>  (563) 
BAO_0000357

>  <BAO Label>  (563) 
single protein format

>  <Assay Organism>  (563) 
None

>  <Target ChEMBL ID>  (563) 
CHEMBL2815

>  <Target Name>  (563) 
Nerve growth factor receptor Trk-A

>  <Target Organism>  (563) 
Homo sapiens

>  <Target Type>  (563) 
SINGLE PROTEIN

>  <Document ChEMBL ID>  (563) 
CHEMBL3886151

>  <Source Description>  (563) 
BindingDB Database

>  <Document Journal>  (563) 
nan

>  <Document Year>  (563) 
2014.0

>  <Active>  (563) 
1.0

>  <bits>  (563) 
<rdkit.DataStructs.cDataStructs.ExplicitBitVect object at 0x00000159F5472D50>

>  <Group>  (563) 
G2

$$$$

     RDKit          2D

 36 39  0  0  0  0  0  0  0  0999 V2000
   -2.9520   -4.6564    0.0000 C   0  0  0  0  0  0  0  0  0  0  0  0
   -2.6401   -3.1891    0.0000 C   0  0  0  0  0  0  0  0  0  0  0  0
   -3.7548   -2.1855    0.0000 C   0  0  0  0  0  0  0  0  0  0  0  0
   -5.1814   -2.6490    0.0000 O   0  0  0  0  0  0  0  0  0  0  0  0
   -1.2135   -2.7256    0.0000 N   0  0  0  0  0  0  0  0  0  0  0  0
   -0.0000   -3.6073    0.0000 C   0  0  0  0  0  0  0  0  0  0  0  0
    1.2135   -2.7256    0.0000 C   0  0  0  0  0  0  0  0  0  0  0  0
    2.6401   -3.1891    0.0000 C   0  0  0  0  0  0  0  0  0  0  0  0
    3.7548   -2.1855    0.0000 O   0  0  0  0  0  0  0  0  0  0  0  0
    2.9520   -4.6564    0.0000 C   0  0  0  0  0  0  0  0  0  0  0  0
    1.8373   -5.6601    0.0000 C   0  0  0  0  0  0  0  0  0  0  0  0
    2.1491   -7.1273    0.0000 N   0  0  0  0  0  0  0  0  0  0  0  0
    3.5757   -7.5908    0.0000 C   0  0  0  0  0  0  0  0  0  0  0  0
    4.6904   -6.5871    0.0000 C   0  0  0  0  0  0  0  0  0  0  0  0
    6.1170   -7.0506    0.0000 N   0  0  0  0  0  0  0  0  0  0  0  0
    6.4289   -8.5179    0.0000 C   0  0  0  0  0  0  0  0  0  0  0  0
    5.3142   -9.5216    0.0000 O   0  0  0  0  0  0  0  0  0  0  0  0
    7.8555   -8.9814    0.0000 C   0  0  0  0  0  0  0  0  0  0  0  0
    8.1673  -10.4486    0.0000 C   0  0  0  0  0  0  0  0  0  0  0  0
    7.0526  -11.4523    0.0000 C   0  0  0  0  0  0  0  0  0  0  0  0
    7.3645  -12.9195    0.0000 C   0  0  0  0  0  0  0  0  0  0  0  0
    8.7911  -13.3831    0.0000 C   0  0  0  0  0  0  0  0  0  0  0  0
    9.9058  -12.3794    0.0000 C   0  0  0  0  0  0  0  0  0  0  0  0
   11.3324  -12.8429    0.0000 C   0  0  0  0  0  0  0  0  0  0  0  0
   12.7590  -13.3064    0.0000 F   0  0  0  0  0  0  0  0  0  0  0  0
   10.8688  -14.2695    0.0000 F   0  0  0  0  0  0  0  0  0  0  0  0
   11.7959  -11.4163    0.0000 F   0  0  0  0  0  0  0  0  0  0  0  0
    9.5939  -10.9121    0.0000 C   0  0  0  0  0  0  0  0  0  0  0  0
    4.3786   -5.1199    0.0000 C   0  0  0  0  0  0  0  0  0  0  0  0
    0.7500   -1.2990    0.0000 C   0  0  0  0  0  0  0  0  0  0  0  0
    1.5000    0.0000    0.0000 C   0  0  0  0  0  0  0  0  0  0  0  0
    0.7500    1.2990    0.0000 N   0  0  0  0  0  0  0  0  0  0  0  0
   -0.7500    1.2990    0.0000 C   0  0  0  0  0  0  0  0  0  0  0  0
   -1.5000    0.0000    0.0000 C   0  0  0  0  0  0  0  0  0  0  0  0
   -3.0000    0.0000    0.0000 F   0  0  0  0  0  0  0  0  0  0  0  0
   -0.7500   -1.2990    0.0000 C   0  0  0  0  0  0  0  0  0  0  0  0
  1  2  1  0
  2  3  1  0
  3  4  1  0
  2  5  1  0
  5  6  1  0
  6  7  2  0
  7  8  1  0
  8  9  2  0
  8 10  1  0
 10 11  2  0
 11 12  1  0
 12 13  2  0
 13 14  1  0
 14 15  1  0
 15 16  1  0
 16 17  2  0
 16 18  1  0
 18 19  1  0
 19 20  2  0
 20 21  1  0
 21 22  2  0
 22 23  1  0
 23 24  1  0
 24 25  1  0
 24 26  1  0
 24 27  1  0
 23 28  2  0
 14 29  2  0
  7 30  1  0
 30 31  2  0
 31 32  1  0
 32 33  2  0
 33 34  1  0
 34 35  1  0
 34 36  2  0
 36  5  1  0
 29 10  1  0
 36 30  1  0
 28 19  1  0
M  END
>  <Compound_ID>  (564) 
CHEMBL3924413

>  <Molecule Name>  (564) 
nan

>  <Molecular Weight>  (564) 
500.45

>  <AlogP>  (564) 
4.55

>  <Smiles>  (564) 
CC(CO)n1cc(C(=O)c2cncc(NC(=O)Cc3cccc(C(F)(F)F)c3)c2)c2cncc(F)c21

>  <Standard Type>  (564) 
IC50

>  <Standard Relation>  (564) 
'='

>  <Standard Units>  (564) 
nM

>  <Standard Value>  (564) 
11.3

>  <Assay ChEMBL ID>  (564) 
CHEMBL3887111

>  <Assay Description>  (564) 
HTRF Assay: Isolated TRK Enzyme assays use the HTRF KinEASE-TK kit (Cisbio Cat#62TK0PEJ) with recombinant His-tagged cytoplasmic domains of each TRK receptor sourced from Invitrogen (see table below). This activity-assay measures the phosphorylation of tyrosine residues within a substrate from the HTRF kit which has been validated by Cisbio for a variety of tyrosine kinases including the TRK receptors.Assay Details: Invitrogen Amino FAC FAC Assay ReactionTarget Cat# acids enzyme ATP TimeTRKA PV3144 aa 441-4 nM 40 uM 35 min (NTRK1) 796 TRKB PV3616 aa 526-1 nM 1.4 uM 40 min (NTRK2) 838 TRKC PV3617 aa 510- 10 nM 15 uM 30 min (NTRK3) 8250.5 mM stock solutions of test compounds are prepared and serially diluted in 100% DMSO. A standard curve using the compound of Example 135 disclosed in WO2005/116035 of 150 uM is also prepared on each test plate. High percentage effect (HPE) is defined by 150 uM.

>  <BAO Format ID>  (564) 
BAO_0000357

>  <BAO Label>  (564) 
single protein format

>  <Assay Organism>  (564) 
None

>  <Target ChEMBL ID>  (564) 
CHEMBL2815

>  <Target Name>  (564) 
Nerve growth factor receptor Trk-A

>  <Target Organism>  (564) 
Homo sapiens

>  <Target Type>  (564) 
SINGLE PROTEIN

>  <Document ChEMBL ID>  (564) 
CHEMBL3886170

>  <Source Description>  (564) 
BindingDB Database

>  <Document Journal>  (564) 
nan

>  <Document Year>  (564) 
2015.0

>  <Active>  (564) 
1.0

>  <bits>  (564) 
<rdkit.DataStructs.cDataStructs.ExplicitBitVect object at 0x00000159F5472180>

>  <Group>  (564) 
G2

$$$$

     RDKit          2D

 37 40  0  0  0  0  0  0  0  0999 V2000
   -2.1766   -4.6157    0.0000 C   0  0  0  0  0  0  0  0  0  0  0  0
   -2.6401   -3.1891    0.0000 C   0  0  0  0  0  0  0  0  0  0  0  0
   -3.1036   -1.7626    0.0000 C   0  0  0  0  0  0  0  0  0  0  0  0
   -4.0667   -3.6527    0.0000 C   0  0  0  0  0  0  0  0  0  0  0  0
   -5.1814   -2.6490    0.0000 O   0  0  0  0  0  0  0  0  0  0  0  0
   -1.2135   -2.7256    0.0000 N   0  0  0  0  0  0  0  0  0  0  0  0
   -0.0000   -3.6073    0.0000 C   0  0  0  0  0  0  0  0  0  0  0  0
    1.2135   -2.7256    0.0000 C   0  0  0  0  0  0  0  0  0  0  0  0
    2.6401   -3.1891    0.0000 C   0  0  0  0  0  0  0  0  0  0  0  0
    3.7548   -2.1855    0.0000 O   0  0  0  0  0  0  0  0  0  0  0  0
    2.9520   -4.6564    0.0000 C   0  0  0  0  0  0  0  0  0  0  0  0
    1.8373   -5.6601    0.0000 C   0  0  0  0  0  0  0  0  0  0  0  0
    2.1491   -7.1273    0.0000 N   0  0  0  0  0  0  0  0  0  0  0  0
    3.5757   -7.5908    0.0000 C   0  0  0  0  0  0  0  0  0  0  0  0
    4.6904   -6.5871    0.0000 C   0  0  0  0  0  0  0  0  0  0  0  0
    6.1170   -7.0506    0.0000 N   0  0  0  0  0  0  0  0  0  0  0  0
    6.4289   -8.5179    0.0000 C   0  0  0  0  0  0  0  0  0  0  0  0
    5.3142   -9.5216    0.0000 O   0  0  0  0  0  0  0  0  0  0  0  0
    7.8555   -8.9814    0.0000 C   0  0  0  0  0  0  0  0  0  0  0  0
    8.1673  -10.4486    0.0000 C   0  0  0  0  0  0  0  0  0  0  0  0
    7.0526  -11.4523    0.0000 C   0  0  0  0  0  0  0  0  0  0  0  0
    7.3645  -12.9195    0.0000 C   0  0  0  0  0  0  0  0  0  0  0  0
    8.7911  -13.3831    0.0000 C   0  0  0  0  0  0  0  0  0  0  0  0
    9.1029  -14.8503    0.0000 C   0  0  0  0  0  0  0  0  0  0  0  0
    9.4148  -16.3175    0.0000 F   0  0  0  0  0  0  0  0  0  0  0  0
    7.6357  -15.1621    0.0000 F   0  0  0  0  0  0  0  0  0  0  0  0
   10.5702  -14.5384    0.0000 F   0  0  0  0  0  0  0  0  0  0  0  0
    9.9058  -12.3794    0.0000 C   0  0  0  0  0  0  0  0  0  0  0  0
    9.5939  -10.9121    0.0000 N   0  0  0  0  0  0  0  0  0  0  0  0
    4.3786   -5.1199    0.0000 C   0  0  0  0  0  0  0  0  0  0  0  0
    0.7500   -1.2990    0.0000 C   0  0  0  0  0  0  0  0  0  0  0  0
    1.5000    0.0000    0.0000 C   0  0  0  0  0  0  0  0  0  0  0  0
    0.7500    1.2990    0.0000 N   0  0  0  0  0  0  0  0  0  0  0  0
   -0.7500    1.2990    0.0000 C   0  0  0  0  0  0  0  0  0  0  0  0
   -1.5000    2.5981    0.0000 N   0  0  0  0  0  0  0  0  0  0  0  0
   -1.5000    0.0000    0.0000 N   0  0  0  0  0  0  0  0  0  0  0  0
   -0.7500   -1.2990    0.0000 C   0  0  0  0  0  0  0  0  0  0  0  0
  1  2  1  0
  2  3  1  0
  2  4  1  0
  4  5  1  0
  2  6  1  0
  6  7  1  0
  7  8  2  0
  8  9  1  0
  9 10  2  0
  9 11  1  0
 11 12  2  0
 12 13  1  0
 13 14  2  0
 14 15  1  0
 15 16  1  0
 16 17  1  0
 17 18  2  0
 17 19  1  0
 19 20  1  0
 20 21  2  0
 21 22  1  0
 22 23  2  0
 23 24  1  0
 24 25  1  0
 24 26  1  0
 24 27  1  0
 23 28  1  0
 28 29  2  0
 15 30  2  0
  8 31  1  0
 31 32  2  0
 32 33  1  0
 33 34  2  0
 34 35  1  0
 34 36  1  0
 36 37  2  0
 37  6  1  0
 30 11  1  0
 37 31  1  0
 29 20  1  0
M  END
>  <Compound_ID>  (565) 
CHEMBL3671435

>  <Molecule Name>  (565) 
nan

>  <Molecular Weight>  (565) 
513.48

>  <AlogP>  (565) 
2.96

>  <Smiles>  (565) 
CC(C)(CO)n1cc(C(=O)c2cncc(NC(=O)Cc3ccc(C(F)(F)F)cn3)c2)c2cnc(N)nc21

>  <Standard Type>  (565) 
IC50

>  <Standard Relation>  (565) 
'='

>  <Standard Units>  (565) 
nM

>  <Standard Value>  (565) 
3.75

>  <Assay ChEMBL ID>  (565) 
CHEMBL3887033

>  <Assay Description>  (565) 
Enzyme Assay: Isolated TRK Enzyme assays use the HTRF KinEASE-TK kit (Cisbio Cat# 62TK0PEJ) with recombinant His-tagged cytoplasmic domains of each TRK receptor sourced from Invitrogen (see table below). This activity-assay measures the phosphorylation of tyrosine residues within a substrate from the HTRF kit which has been validated by Cisbio for a variety of tyrosine kinases including the TRK receptors. Assay details: Target:TRKA; Invitrogen Cat# PV3144; Amino acids:aa 441-796; FAC enzyme:4nM; FAC ATP:40uM; Assay Reaction Time:35min.

>  <BAO Format ID>  (565) 
BAO_0000357

>  <BAO Label>  (565) 
single protein format

>  <Assay Organism>  (565) 
None

>  <Target ChEMBL ID>  (565) 
CHEMBL2815

>  <Target Name>  (565) 
Nerve growth factor receptor Trk-A

>  <Target Organism>  (565) 
Homo sapiens

>  <Target Type>  (565) 
SINGLE PROTEIN

>  <Document ChEMBL ID>  (565) 
CHEMBL3639348

>  <Source Description>  (565) 
BindingDB Database

>  <Document Journal>  (565) 
nan

>  <Document Year>  (565) 
2014.0

>  <Active>  (565) 
1.0

>  <bits>  (565) 
<rdkit.DataStructs.cDataStructs.ExplicitBitVect object at 0x00000159F5471F50>

>  <Group>  (565) 
G2

$$$$

     RDKit          2D

 32 36  0  0  0  0  0  0  0  0999 V2000
    5.2500   -3.8971    0.0000 N   0  0  0  0  0  0  0  0  0  0  0  0
    3.7500   -3.8971    0.0000 C   0  0  0  0  0  0  0  0  0  0  0  0
    3.0000   -5.1962    0.0000 C   0  0  0  0  0  0  0  0  0  0  0  0
    1.5000   -5.1962    0.0000 C   0  0  0  0  0  0  0  0  0  0  0  0
    0.7500   -6.4952    0.0000 N   0  0  0  0  0  0  0  0  0  0  0  0
   -0.7500   -6.4952    0.0000 S   0  0  0  0  0  0  0  0  0  0  0  0
   -0.7500   -4.9952    0.0000 O   0  0  0  0  0  0  0  0  0  0  0  0
   -0.7500   -7.9952    0.0000 O   0  0  0  0  0  0  0  0  0  0  0  0
   -2.2500   -6.4952    0.0000 C   0  0  0  0  0  0  0  0  0  0  0  0
   -3.0000   -5.1962    0.0000 C   0  0  0  0  0  0  0  0  0  0  0  0
   -4.5000   -5.1962    0.0000 C   0  0  0  0  0  0  0  0  0  0  0  0
   -5.2500   -6.4952    0.0000 C   0  0  0  0  0  0  0  0  0  0  0  0
   -4.5000   -7.7942    0.0000 C   0  0  0  0  0  0  0  0  0  0  0  0
   -3.0000   -7.7942    0.0000 C   0  0  0  0  0  0  0  0  0  0  0  0
    0.7500   -3.8971    0.0000 C   0  0  0  0  0  0  0  0  0  0  0  0
    1.5000   -2.5981    0.0000 C   0  0  0  0  0  0  0  0  0  0  0  0
    0.7500   -1.2990    0.0000 C   0  0  0  0  0  0  0  0  0  0  0  0
    1.5000    0.0000    0.0000 C   0  0  0  0  0  0  0  0  0  0  0  0
    0.7500    1.2990    0.0000 N   0  0  0  0  0  0  0  0  0  0  0  0
   -0.7500    1.2990    0.0000 C   0  0  0  0  0  0  0  0  0  0  0  0
   -1.7537    2.4138    0.0000 N   0  0  0  0  0  0  0  0  0  0  0  0
   -3.1240    1.8037    0.0000 C   0  0  0  0  0  0  0  0  0  0  0  0
   -2.9672    0.3119    0.0000 C   0  0  0  0  0  0  0  0  0  0  0  0
   -4.0819   -0.6918    0.0000 C   0  0  0  0  0  0  0  0  0  0  0  0
   -5.5085   -0.2283    0.0000 C   0  0  0  0  0  0  0  0  0  0  0  0
   -6.6232   -1.2320    0.0000 C   0  0  0  0  0  0  0  0  0  0  0  0
   -6.3114   -2.6992    0.0000 N   0  0  0  0  0  0  0  0  0  0  0  0
   -4.8848   -3.1627    0.0000 C   0  0  0  0  0  0  0  0  0  0  0  0
   -3.7701   -2.1590    0.0000 C   0  0  0  0  0  0  0  0  0  0  0  0
   -1.5000    0.0000    0.0000 C   0  0  0  0  0  0  0  0  0  0  0  0
   -0.7500   -1.2990    0.0000 C   0  0  0  0  0  0  0  0  0  0  0  0
    3.0000   -2.5981    0.0000 C   0  0  0  0  0  0  0  0  0  0  0  0
  1  2  1  0
  2  3  2  0
  3  4  1  0
  4  5  1  0
  5  6  1  0
  6  7  2  0
  6  8  2  0
  6  9  1  0
  9 10  2  0
 10 11  1  0
 11 12  2  0
 12 13  1  0
 13 14  2  0
  4 15  2  0
 15 16  1  0
 16 17  1  0
 17 18  2  0
 18 19  1  0
 19 20  2  0
 20 21  1  0
 21 22  1  0
 22 23  2  0
 23 24  1  0
 24 25  2  0
 25 26  1  0
 26 27  2  0
 27 28  1  0
 28 29  2  0
 23 30  1  0
 30 31  2  0
 16 32  2  0
 32  2  1  0
 14  9  1  0
 31 17  1  0
 30 20  1  0
 29 24  1  0
M  END
>  <Compound_ID>  (566) 
CHEMBL2152285

>  <Molecule Name>  (566) 
nan

>  <Molecular Weight>  (566) 
441.52

>  <AlogP>  (566) 
4.67

>  <Smiles>  (566) 
Nc1cc(NS(=O)(=O)c2ccccc2)cc(-c2cnc3[nH]cc(-c4ccncc4)c3c2)c1

>  <Standard Type>  (566) 
IC50

>  <Standard Relation>  (566) 
'='

>  <Standard Units>  (566) 
nM

>  <Standard Value>  (566) 
9.4

>  <Assay ChEMBL ID>  (566) 
CHEMBL2157053

>  <Assay Description>  (566) 
Inhibition of TRKA assessed as [gamma33P]ATP incorporation into substrate

>  <BAO Format ID>  (566) 
BAO_0000357

>  <BAO Label>  (566) 
single protein format

>  <Assay Organism>  (566) 
None

>  <Target ChEMBL ID>  (566) 
CHEMBL2815

>  <Target Name>  (566) 
Nerve growth factor receptor Trk-A

>  <Target Organism>  (566) 
Homo sapiens

>  <Target Type>  (566) 
SINGLE PROTEIN

>  <Document ChEMBL ID>  (566) 
CHEMBL2150859

>  <Source Description>  (566) 
Scientific Literature

>  <Document Journal>  (566) 
J Med Chem

>  <Document Year>  (566) 
2012.0

>  <Active>  (566) 
1.0

>  <bits>  (566) 
<rdkit.DataStructs.cDataStructs.ExplicitBitVect object at 0x00000159F5471930>

>  <Group>  (566) 
G2

$$$$

     RDKit          2D

 26 29  0  0  0  0  0  0  0  0999 V2000
    7.5000   -5.1962    0.0000 C   0  0  0  0  0  0  0  0  0  0  0  0
    6.0000   -5.1962    0.0000 C   0  0  0  0  0  0  0  0  0  0  0  0
    5.2500   -6.4952    0.0000 O   0  0  0  0  0  0  0  0  0  0  0  0
    5.2500   -3.8971    0.0000 N   0  0  0  0  0  0  0  0  0  0  0  0
    3.7500   -3.8971    0.0000 C   0  0  0  0  0  0  0  0  0  0  0  0
    3.0000   -5.1962    0.0000 C   0  0  0  0  0  0  0  0  0  0  0  0
    1.5000   -5.1962    0.0000 C   0  0  0  0  0  0  0  0  0  0  0  0
    0.7500   -6.4952    0.0000 N   0  0  0  0  0  0  0  0  0  0  0  0
    0.7500   -3.8971    0.0000 C   0  0  0  0  0  0  0  0  0  0  0  0
    1.5000   -2.5981    0.0000 C   0  0  0  0  0  0  0  0  0  0  0  0
    0.7500   -1.2990    0.0000 C   0  0  0  0  0  0  0  0  0  0  0  0
    1.5000    0.0000    0.0000 C   0  0  0  0  0  0  0  0  0  0  0  0
    0.7500    1.2990    0.0000 N   0  0  0  0  0  0  0  0  0  0  0  0
   -0.7500    1.2990    0.0000 C   0  0  0  0  0  0  0  0  0  0  0  0
   -1.7537    2.4138    0.0000 N   0  0  0  0  0  0  0  0  0  0  0  0
   -3.1240    1.8037    0.0000 C   0  0  0  0  0  0  0  0  0  0  0  0
   -2.9672    0.3119    0.0000 C   0  0  0  0  0  0  0  0  0  0  0  0
   -4.0819   -0.6918    0.0000 C   0  0  0  0  0  0  0  0  0  0  0  0
   -5.5085   -0.2283    0.0000 C   0  0  0  0  0  0  0  0  0  0  0  0
   -6.6232   -1.2320    0.0000 C   0  0  0  0  0  0  0  0  0  0  0  0
   -6.3114   -2.6992    0.0000 N   0  0  0  0  0  0  0  0  0  0  0  0
   -4.8848   -3.1627    0.0000 C   0  0  0  0  0  0  0  0  0  0  0  0
   -3.7701   -2.1590    0.0000 C   0  0  0  0  0  0  0  0  0  0  0  0
   -1.5000    0.0000    0.0000 C   0  0  0  0  0  0  0  0  0  0  0  0
   -0.7500   -1.2990    0.0000 C   0  0  0  0  0  0  0  0  0  0  0  0
    3.0000   -2.5981    0.0000 C   0  0  0  0  0  0  0  0  0  0  0  0
  1  2  1  0
  2  3  2  0
  2  4  1  0
  4  5  1  0
  5  6  2  0
  6  7  1  0
  7  8  1  0
  7  9  2  0
  9 10  1  0
 10 11  1  0
 11 12  2  0
 12 13  1  0
 13 14  2  0
 14 15  1  0
 15 16  1  0
 16 17  2  0
 17 18  1  0
 18 19  2  0
 19 20  1  0
 20 21  2  0
 21 22  1  0
 22 23  2  0
 17 24  1  0
 24 25  2  0
 10 26  2  0
 26  5  1  0
 25 11  1  0
 24 14  1  0
 23 18  1  0
M  END
>  <Compound_ID>  (567) 
CHEMBL2152289

>  <Molecule Name>  (567) 
nan

>  <Molecular Weight>  (567) 
343.39

>  <AlogP>  (567) 
3.83

>  <Smiles>  (567) 
CC(=O)Nc1cc(N)cc(-c2cnc3[nH]cc(-c4ccncc4)c3c2)c1

>  <Standard Type>  (567) 
IC50

>  <Standard Relation>  (567) 
'='

>  <Standard Units>  (567) 
nM

>  <Standard Value>  (567) 
5.41

>  <Assay ChEMBL ID>  (567) 
CHEMBL2157053

>  <Assay Description>  (567) 
Inhibition of TRKA assessed as [gamma33P]ATP incorporation into substrate

>  <BAO Format ID>  (567) 
BAO_0000357

>  <BAO Label>  (567) 
single protein format

>  <Assay Organism>  (567) 
None

>  <Target ChEMBL ID>  (567) 
CHEMBL2815

>  <Target Name>  (567) 
Nerve growth factor receptor Trk-A

>  <Target Organism>  (567) 
Homo sapiens

>  <Target Type>  (567) 
SINGLE PROTEIN

>  <Document ChEMBL ID>  (567) 
CHEMBL2150859

>  <Source Description>  (567) 
Scientific Literature

>  <Document Journal>  (567) 
J Med Chem

>  <Document Year>  (567) 
2012.0

>  <Active>  (567) 
1.0

>  <bits>  (567) 
<rdkit.DataStructs.cDataStructs.ExplicitBitVect object at 0x00000159F5472880>

>  <Group>  (567) 
G2

$$$$

     RDKit          2D

 33 37  0  0  0  0  0  0  0  0999 V2000
   -3.2128  -11.9292    0.0000 C   0  0  0  0  0  0  0  0  0  0  0  0
   -1.9137  -12.6792    0.0000 C   0  0  0  0  0  0  0  0  0  0  0  0
   -1.7570  -14.1710    0.0000 O   0  0  0  0  0  0  0  0  0  0  0  0
   -0.2897  -14.4829    0.0000 C   0  0  0  0  0  0  0  0  0  0  0  0
    0.3204  -15.8532    0.0000 C   0  0  0  0  0  0  0  0  0  0  0  0
    1.5339  -16.7349    0.0000 C   0  0  0  0  0  0  0  0  0  0  0  0
    0.1636  -17.3450    0.0000 C   0  0  0  0  0  0  0  0  0  0  0  0
    0.4603  -13.1838    0.0000 N   0  0  0  0  0  0  0  0  0  0  0  0
   -0.5434  -12.0691    0.0000 C   0  0  0  0  0  0  0  0  0  0  0  0
   -0.2316  -10.6019    0.0000 C   0  0  0  0  0  0  0  0  0  0  0  0
   -1.3463   -9.5982    0.0000 C   0  0  0  0  0  0  0  0  0  0  0  0
   -2.7729  -10.0617    0.0000 O   0  0  0  0  0  0  0  0  0  0  0  0
   -1.0344   -8.1310    0.0000 N   0  0  0  0  0  0  0  0  0  0  0  0
   -2.1491   -7.1273    0.0000 C   0  0  0  0  0  0  0  0  0  0  0  0
   -1.8373   -5.6601    0.0000 C   0  0  0  0  0  0  0  0  0  0  0  0
   -2.9520   -4.6564    0.0000 C   0  0  0  0  0  0  0  0  0  0  0  0
   -2.6401   -3.1891    0.0000 C   0  0  0  0  0  0  0  0  0  0  0  0
   -3.7548   -2.1855    0.0000 O   0  0  0  0  0  0  0  0  0  0  0  0
   -1.2135   -2.7256    0.0000 C   0  0  0  0  0  0  0  0  0  0  0  0
   -0.0000   -3.6073    0.0000 C   0  0  0  0  0  0  0  0  0  0  0  0
    1.2135   -2.7256    0.0000 N   0  0  0  0  0  0  0  0  0  0  0  0
    2.6401   -3.1891    0.0000 C   0  0  0  0  0  0  0  0  0  0  0  0
    2.9520   -4.6564    0.0000 C   0  0  0  0  0  0  0  0  0  0  0  0
    3.7548   -2.1855    0.0000 C   0  0  0  0  0  0  0  0  0  0  0  0
    0.7500   -1.2990    0.0000 C   0  0  0  0  0  0  0  0  0  0  0  0
    1.5000    0.0000    0.0000 C   0  0  0  0  0  0  0  0  0  0  0  0
    0.7500    1.2990    0.0000 C   0  0  0  0  0  0  0  0  0  0  0  0
   -0.7500    1.2990    0.0000 N   0  0  0  0  0  0  0  0  0  0  0  0
   -1.5000    0.0000    0.0000 C   0  0  0  0  0  0  0  0  0  0  0  0
   -0.7500   -1.2990    0.0000 C   0  0  0  0  0  0  0  0  0  0  0  0
   -4.3786   -5.1199    0.0000 C   0  0  0  0  0  0  0  0  0  0  0  0
   -4.6904   -6.5871    0.0000 C   0  0  0  0  0  0  0  0  0  0  0  0
   -3.5757   -7.5908    0.0000 N   0  0  0  0  0  0  0  0  0  0  0  0
  1  2  1  0
  2  3  1  0
  3  4  1  0
  4  5  1  0
  5  6  1  0
  6  7  1  0
  4  8  2  0
  8  9  1  0
  9 10  1  0
 10 11  1  0
 11 12  2  0
 11 13  1  0
 13 14  1  0
 14 15  2  0
 15 16  1  0
 16 17  1  0
 17 18  2  0
 17 19  1  0
 19 20  2  0
 20 21  1  0
 21 22  1  0
 22 23  1  0
 22 24  1  0
 21 25  1  0
 25 26  2  0
 26 27  1  0
 27 28  2  0
 28 29  1  0
 29 30  2  0
 16 31  2  0
 31 32  1  0
 32 33  2  0
  9  2  2  0
 33 14  1  0
  7  5  1  0
 30 19  1  0
 30 25  1  0
M  END
>  <Compound_ID>  (568) 
CHEMBL3894656

>  <Molecule Name>  (568) 
nan

>  <Molecular Weight>  (568) 
443.51

>  <AlogP>  (568) 
4.6

>  <Smiles>  (568) 
Cc1oc(C2CC2)nc1CC(=O)Nc1cc(C(=O)c2cn(C(C)C)c3ccncc23)ccn1

>  <Standard Type>  (568) 
IC50

>  <Standard Relation>  (568) 
'='

>  <Standard Units>  (568) 
nM

>  <Standard Value>  (568) 
15.8

>  <Assay ChEMBL ID>  (568) 
CHEMBL3887111

>  <Assay Description>  (568) 
HTRF Assay: Isolated TRK Enzyme assays use the HTRF KinEASE-TK kit (Cisbio Cat#62TK0PEJ) with recombinant His-tagged cytoplasmic domains of each TRK receptor sourced from Invitrogen (see table below). This activity-assay measures the phosphorylation of tyrosine residues within a substrate from the HTRF kit which has been validated by Cisbio for a variety of tyrosine kinases including the TRK receptors.Assay Details: Invitrogen Amino FAC FAC Assay ReactionTarget Cat# acids enzyme ATP TimeTRKA PV3144 aa 441-4 nM 40 uM 35 min (NTRK1) 796 TRKB PV3616 aa 526-1 nM 1.4 uM 40 min (NTRK2) 838 TRKC PV3617 aa 510- 10 nM 15 uM 30 min (NTRK3) 8250.5 mM stock solutions of test compounds are prepared and serially diluted in 100% DMSO. A standard curve using the compound of Example 135 disclosed in WO2005/116035 of 150 uM is also prepared on each test plate. High percentage effect (HPE) is defined by 150 uM.

>  <BAO Format ID>  (568) 
BAO_0000357

>  <BAO Label>  (568) 
single protein format

>  <Assay Organism>  (568) 
None

>  <Target ChEMBL ID>  (568) 
CHEMBL2815

>  <Target Name>  (568) 
Nerve growth factor receptor Trk-A

>  <Target Organism>  (568) 
Homo sapiens

>  <Target Type>  (568) 
SINGLE PROTEIN

>  <Document ChEMBL ID>  (568) 
CHEMBL3886170

>  <Source Description>  (568) 
BindingDB Database

>  <Document Journal>  (568) 
nan

>  <Document Year>  (568) 
2015.0

>  <Active>  (568) 
1.0

>  <bits>  (568) 
<rdkit.DataStructs.cDataStructs.ExplicitBitVect object at 0x00000159F5470AC0>

>  <Group>  (568) 
G2

$$$$

     RDKit          2D

 39 42  0  0  0  0  0  0  0  0999 V2000
  -14.3637   -5.5763    0.0000 C   0  0  0  0  0  0  0  0  0  0  0  0
  -13.4820   -4.3628    0.0000 C   0  0  0  0  0  0  0  0  0  0  0  0
  -14.0921   -2.9925    0.0000 C   0  0  0  0  0  0  0  0  0  0  0  0
  -11.9903   -4.5196    0.0000 N   0  0  0  0  0  0  0  0  0  0  0  0
  -10.9866   -3.4049    0.0000 N   0  0  0  0  0  0  0  0  0  0  0  0
   -9.6162   -4.0150    0.0000 C   0  0  0  0  0  0  0  0  0  0  0  0
   -9.7730   -5.5068    0.0000 C   0  0  0  0  0  0  0  0  0  0  0  0
   -8.6583   -6.5105    0.0000 C   0  0  0  0  0  0  0  0  0  0  0  0
   -7.2317   -6.0469    0.0000 C   0  0  0  0  0  0  0  0  0  0  0  0
   -6.9199   -4.5797    0.0000 O   0  0  0  0  0  0  0  0  0  0  0  0
   -6.1170   -7.0506    0.0000 N   0  0  0  0  0  0  0  0  0  0  0  0
   -4.6904   -6.5871    0.0000 C   0  0  0  0  0  0  0  0  0  0  0  0
   -3.5757   -7.5908    0.0000 C   0  0  0  0  0  0  0  0  0  0  0  0
   -2.1491   -7.1273    0.0000 N   0  0  0  0  0  0  0  0  0  0  0  0
   -1.8373   -5.6601    0.0000 C   0  0  0  0  0  0  0  0  0  0  0  0
   -2.9520   -4.6564    0.0000 C   0  0  0  0  0  0  0  0  0  0  0  0
   -2.6401   -3.1891    0.0000 C   0  0  0  0  0  0  0  0  0  0  0  0
   -3.7548   -2.1855    0.0000 O   0  0  0  0  0  0  0  0  0  0  0  0
   -1.2135   -2.7256    0.0000 C   0  0  0  0  0  0  0  0  0  0  0  0
   -0.0000   -3.6073    0.0000 C   0  0  0  0  0  0  0  0  0  0  0  0
    1.2135   -2.7256    0.0000 N   0  0  0  0  0  0  0  0  0  0  0  0
    2.6401   -3.1891    0.0000 C   0  0  0  0  0  0  0  0  0  0  0  0
    2.1766   -4.6157    0.0000 C   0  0  0  0  0  0  0  0  0  0  0  0
    3.1036   -1.7626    0.0000 C   0  0  0  0  0  0  0  0  0  0  0  0
    4.0667   -3.6527    0.0000 C   0  0  0  0  0  0  0  0  0  0  0  0
    5.1814   -2.6490    0.0000 O   0  0  0  0  0  0  0  0  0  0  0  0
    0.7500   -1.2990    0.0000 C   0  0  0  0  0  0  0  0  0  0  0  0
    1.5000    0.0000    0.0000 N   0  0  0  0  0  0  0  0  0  0  0  0
    0.7500    1.2990    0.0000 C   0  0  0  0  0  0  0  0  0  0  0  0
    1.5000    2.5981    0.0000 N   0  0  0  0  0  0  0  0  0  0  0  0
   -0.7500    1.2990    0.0000 N   0  0  0  0  0  0  0  0  0  0  0  0
   -1.5000    0.0000    0.0000 C   0  0  0  0  0  0  0  0  0  0  0  0
   -0.7500   -1.2990    0.0000 C   0  0  0  0  0  0  0  0  0  0  0  0
   -4.3786   -5.1199    0.0000 C   0  0  0  0  0  0  0  0  0  0  0  0
  -11.2403   -5.8186    0.0000 C   0  0  0  0  0  0  0  0  0  0  0  0
  -11.8504   -7.1890    0.0000 C   0  0  0  0  0  0  0  0  0  0  0  0
  -12.4605   -8.5593    0.0000 F   0  0  0  0  0  0  0  0  0  0  0  0
  -10.4800   -7.7991    0.0000 F   0  0  0  0  0  0  0  0  0  0  0  0
  -13.2207   -6.5789    0.0000 F   0  0  0  0  0  0  0  0  0  0  0  0
  1  2  1  0
  2  3  1  0
  2  4  1  0
  4  5  1  0
  5  6  2  0
  6  7  1  0
  7  8  1  0
  8  9  1  0
  9 10  2  0
  9 11  1  0
 11 12  1  0
 12 13  2  0
 13 14  1  0
 14 15  2  0
 15 16  1  0
 16 17  1  0
 17 18  2  0
 17 19  1  0
 19 20  2  0
 20 21  1  0
 21 22  1  0
 22 23  1  0
 22 24  1  0
 22 25  1  0
 25 26  1  0
 21 27  1  0
 27 28  2  0
 28 29  1  0
 29 30  1  0
 29 31  2  0
 31 32  1  0
 32 33  2  0
 16 34  2  0
  7 35  2  0
 35 36  1  0
 36 37  1  0
 36 38  1  0
 36 39  1  0
 35  4  1  0
 34 12  1  0
 33 19  1  0
 33 27  1  0
M  END
>  <Compound_ID>  (569) 
CHEMBL3666263

>  <Molecule Name>  (569) 
nan

>  <Molecular Weight>  (569) 
544.54

>  <AlogP>  (569) 
3.34

>  <Smiles>  (569) 
CC(C)n1ncc(CC(=O)Nc2cncc(C(=O)c3cn(C(C)(C)CO)c4nc(N)ncc34)c2)c1C(F)(F)F

>  <Standard Type>  (569) 
IC50

>  <Standard Relation>  (569) 
'='

>  <Standard Units>  (569) 
nM

>  <Standard Value>  (569) 
16.8

>  <Assay ChEMBL ID>  (569) 
CHEMBL3887033

>  <Assay Description>  (569) 
Enzyme Assay: Isolated TRK Enzyme assays use the HTRF KinEASE-TK kit (Cisbio Cat# 62TK0PEJ) with recombinant His-tagged cytoplasmic domains of each TRK receptor sourced from Invitrogen (see table below). This activity-assay measures the phosphorylation of tyrosine residues within a substrate from the HTRF kit which has been validated by Cisbio for a variety of tyrosine kinases including the TRK receptors. Assay details: Target:TRKA; Invitrogen Cat# PV3144; Amino acids:aa 441-796; FAC enzyme:4nM; FAC ATP:40uM; Assay Reaction Time:35min.

>  <BAO Format ID>  (569) 
BAO_0000357

>  <BAO Label>  (569) 
single protein format

>  <Assay Organism>  (569) 
None

>  <Target ChEMBL ID>  (569) 
CHEMBL2815

>  <Target Name>  (569) 
Nerve growth factor receptor Trk-A

>  <Target Organism>  (569) 
Homo sapiens

>  <Target Type>  (569) 
SINGLE PROTEIN

>  <Document ChEMBL ID>  (569) 
CHEMBL3639348

>  <Source Description>  (569) 
BindingDB Database

>  <Document Journal>  (569) 
nan

>  <Document Year>  (569) 
2014.0

>  <Active>  (569) 
1.0

>  <bits>  (569) 
<rdkit.DataStructs.cDataStructs.ExplicitBitVect object at 0x00000159F5473450>

>  <Group>  (569) 
G2

$$$$

     RDKit          2D

 34 37  0  0  0  0  0  0  0  0999 V2000
   -2.9520   -4.6564    0.0000 C   0  0  0  0  0  0  0  0  0  0  0  0
   -2.6401   -3.1891    0.0000 C   0  0  0  0  0  0  0  0  0  0  0  0
   -3.7548   -2.1855    0.0000 C   0  0  0  0  0  0  0  0  0  0  0  0
   -1.2135   -2.7256    0.0000 N   0  0  0  0  0  0  0  0  0  0  0  0
   -0.0000   -3.6073    0.0000 C   0  0  0  0  0  0  0  0  0  0  0  0
    1.2135   -2.7256    0.0000 C   0  0  0  0  0  0  0  0  0  0  0  0
    2.6401   -3.1891    0.0000 C   0  0  0  0  0  0  0  0  0  0  0  0
    3.7548   -2.1855    0.0000 O   0  0  0  0  0  0  0  0  0  0  0  0
    2.9520   -4.6564    0.0000 C   0  0  0  0  0  0  0  0  0  0  0  0
    1.8373   -5.6601    0.0000 C   0  0  0  0  0  0  0  0  0  0  0  0
    2.1491   -7.1273    0.0000 C   0  0  0  0  0  0  0  0  0  0  0  0
    3.5757   -7.5908    0.0000 N   0  0  0  0  0  0  0  0  0  0  0  0
    4.6904   -6.5871    0.0000 C   0  0  0  0  0  0  0  0  0  0  0  0
    6.1170   -7.0506    0.0000 N   0  0  0  0  0  0  0  0  0  0  0  0
    6.4289   -8.5179    0.0000 C   0  0  0  0  0  0  0  0  0  0  0  0
    5.3142   -9.5216    0.0000 O   0  0  0  0  0  0  0  0  0  0  0  0
    7.8555   -8.9814    0.0000 C   0  0  0  0  0  0  0  0  0  0  0  0
    8.1673  -10.4486    0.0000 C   0  0  0  0  0  0  0  0  0  0  0  0
    7.0526  -11.4523    0.0000 C   0  0  0  0  0  0  0  0  0  0  0  0
    7.3645  -12.9195    0.0000 C   0  0  0  0  0  0  0  0  0  0  0  0
    8.7911  -13.3831    0.0000 C   0  0  0  0  0  0  0  0  0  0  0  0
    9.1029  -14.8503    0.0000 C   0  0  0  0  0  0  0  0  0  0  0  0
    9.4148  -16.3175    0.0000 F   0  0  0  0  0  0  0  0  0  0  0  0
    7.6357  -15.1621    0.0000 F   0  0  0  0  0  0  0  0  0  0  0  0
   10.5702  -14.5384    0.0000 F   0  0  0  0  0  0  0  0  0  0  0  0
    9.9058  -12.3794    0.0000 C   0  0  0  0  0  0  0  0  0  0  0  0
    9.5939  -10.9121    0.0000 C   0  0  0  0  0  0  0  0  0  0  0  0
    4.3786   -5.1199    0.0000 C   0  0  0  0  0  0  0  0  0  0  0  0
    0.7500   -1.2990    0.0000 C   0  0  0  0  0  0  0  0  0  0  0  0
    1.5000    0.0000    0.0000 C   0  0  0  0  0  0  0  0  0  0  0  0
    0.7500    1.2990    0.0000 N   0  0  0  0  0  0  0  0  0  0  0  0
   -0.7500    1.2990    0.0000 C   0  0  0  0  0  0  0  0  0  0  0  0
   -1.5000    0.0000    0.0000 C   0  0  0  0  0  0  0  0  0  0  0  0
   -0.7500   -1.2990    0.0000 C   0  0  0  0  0  0  0  0  0  0  0  0
  1  2  1  0
  2  3  1  0
  2  4  1  0
  4  5  1  0
  5  6  2  0
  6  7  1  0
  7  8  2  0
  7  9  1  0
  9 10  2  0
 10 11  1  0
 11 12  2  0
 12 13  1  0
 13 14  1  0
 14 15  1  0
 15 16  2  0
 15 17  1  0
 17 18  1  0
 18 19  2  0
 19 20  1  0
 20 21  2  0
 21 22  1  0
 22 23  1  0
 22 24  1  0
 22 25  1  0
 21 26  1  0
 26 27  2  0
 13 28  2  0
  6 29  1  0
 29 30  2  0
 30 31  1  0
 31 32  2  0
 32 33  1  0
 33 34  2  0
 34  4  1  0
 28  9  1  0
 34 29  1  0
 27 18  1  0
M  END
>  <Compound_ID>  (570) 
CHEMBL3980190

>  <Molecule Name>  (570) 
nan

>  <Molecular Weight>  (570) 
466.46

>  <AlogP>  (570) 
5.44

>  <Smiles>  (570) 
CC(C)n1cc(C(=O)c2ccnc(NC(=O)Cc3ccc(C(F)(F)F)cc3)c2)c2cnccc21

>  <Standard Type>  (570) 
IC50

>  <Standard Relation>  (570) 
'='

>  <Standard Units>  (570) 
nM

>  <Standard Value>  (570) 
5.3

>  <Assay ChEMBL ID>  (570) 
CHEMBL3887111

>  <Assay Description>  (570) 
HTRF Assay: Isolated TRK Enzyme assays use the HTRF KinEASE-TK kit (Cisbio Cat#62TK0PEJ) with recombinant His-tagged cytoplasmic domains of each TRK receptor sourced from Invitrogen (see table below). This activity-assay measures the phosphorylation of tyrosine residues within a substrate from the HTRF kit which has been validated by Cisbio for a variety of tyrosine kinases including the TRK receptors.Assay Details: Invitrogen Amino FAC FAC Assay ReactionTarget Cat# acids enzyme ATP TimeTRKA PV3144 aa 441-4 nM 40 uM 35 min (NTRK1) 796 TRKB PV3616 aa 526-1 nM 1.4 uM 40 min (NTRK2) 838 TRKC PV3617 aa 510- 10 nM 15 uM 30 min (NTRK3) 8250.5 mM stock solutions of test compounds are prepared and serially diluted in 100% DMSO. A standard curve using the compound of Example 135 disclosed in WO2005/116035 of 150 uM is also prepared on each test plate. High percentage effect (HPE) is defined by 150 uM.

>  <BAO Format ID>  (570) 
BAO_0000357

>  <BAO Label>  (570) 
single protein format

>  <Assay Organism>  (570) 
None

>  <Target ChEMBL ID>  (570) 
CHEMBL2815

>  <Target Name>  (570) 
Nerve growth factor receptor Trk-A

>  <Target Organism>  (570) 
Homo sapiens

>  <Target Type>  (570) 
SINGLE PROTEIN

>  <Document ChEMBL ID>  (570) 
CHEMBL3886170

>  <Source Description>  (570) 
BindingDB Database

>  <Document Journal>  (570) 
nan

>  <Document Year>  (570) 
2015.0

>  <Active>  (570) 
1.0

>  <bits>  (570) 
<rdkit.DataStructs.cDataStructs.ExplicitBitVect object at 0x00000159F5473290>

>  <Group>  (570) 
G2

$$$$

     RDKit          2D

 38 41  0  0  0  0  0  0  0  0999 V2000
   -0.4895   -5.3743    0.0000 C   0  0  0  0  0  0  0  0  0  0  0  0
   -0.7500   -3.8971    0.0000 C   0  0  0  0  0  0  0  0  0  0  0  0
   -2.1595   -4.4101    0.0000 C   0  0  0  0  0  0  0  0  0  0  0  0
   -1.5000   -2.5981    0.0000 O   0  0  0  0  0  0  0  0  0  0  0  0
   -0.7500   -1.2990    0.0000 C   0  0  0  0  0  0  0  0  0  0  0  0
    0.7500   -1.2990    0.0000 C   0  0  0  0  0  0  0  0  0  0  0  0
    1.5000    0.0000    0.0000 N   0  0  0  0  0  0  0  0  0  0  0  0
    0.7500    1.2990    0.0000 C   0  0  0  0  0  0  0  0  0  0  0  0
   -0.7500    1.2990    0.0000 N   0  0  0  0  0  0  0  0  0  0  0  0
   -1.5000    0.0000    0.0000 C   0  0  0  0  0  0  0  0  0  0  0  0
   -3.0000    0.0000    0.0000 N   0  0  0  0  0  0  0  0  0  0  0  0
   -3.7500    1.2990    0.0000 C   0  0  0  0  0  0  0  0  0  0  0  0
   -3.0000    2.5981    0.0000 C   0  0  0  0  0  0  0  0  0  0  0  0
   -3.7500    3.8971    0.0000 C   0  0  0  0  0  0  0  0  0  0  0  0
   -5.2500    3.8971    0.0000 C   0  0  0  0  0  0  0  0  0  0  0  0
   -6.0000    5.1962    0.0000 N   0  0  0  0  0  0  0  0  0  0  0  0
   -5.2500    6.4952    0.0000 C   0  0  0  0  0  0  0  0  0  0  0  0
   -3.7500    6.4952    0.0000 O   0  0  0  0  0  0  0  0  0  0  0  0
   -6.0000    7.7942    0.0000 N   0  0  0  0  0  0  0  0  0  0  0  0
   -5.2500    9.0933    0.0000 C   0  0  0  0  0  0  0  0  0  0  0  0
   -3.7500    9.0933    0.0000 C   0  0  0  0  0  0  0  0  0  0  0  0
   -3.0000   10.3923    0.0000 C   0  0  0  0  0  0  0  0  0  0  0  0
   -1.5000   10.3923    0.0000 C   0  0  0  0  0  0  0  0  0  0  0  0
    0.0000   10.3923    0.0000 F   0  0  0  0  0  0  0  0  0  0  0  0
   -1.5000    8.8923    0.0000 F   0  0  0  0  0  0  0  0  0  0  0  0
   -1.5000   11.8923    0.0000 F   0  0  0  0  0  0  0  0  0  0  0  0
   -3.7500   11.6913    0.0000 C   0  0  0  0  0  0  0  0  0  0  0  0
   -5.2500   11.6913    0.0000 C   0  0  0  0  0  0  0  0  0  0  0  0
   -6.0000   12.9904    0.0000 C   0  0  0  0  0  0  0  0  0  0  0  0
   -6.7500   14.2894    0.0000 F   0  0  0  0  0  0  0  0  0  0  0  0
   -4.7010   13.7404    0.0000 F   0  0  0  0  0  0  0  0  0  0  0  0
   -7.2990   12.2404    0.0000 F   0  0  0  0  0  0  0  0  0  0  0  0
   -6.0000   10.3923    0.0000 C   0  0  0  0  0  0  0  0  0  0  0  0
   -6.0000    2.5981    0.0000 C   0  0  0  0  0  0  0  0  0  0  0  0
   -5.2500    1.2990    0.0000 C   0  0  0  0  0  0  0  0  0  0  0  0
    1.5000   -2.5981    0.0000 N   0  0  0  0  0  0  0  0  0  0  0  0
    0.7500   -3.8971    0.0000 C   0  0  0  0  0  0  0  0  0  0  0  0
    1.5000   -5.1962    0.0000 O   0  0  0  0  0  0  0  0  0  0  0  0
  1  2  1  0
  2  3  1  0
  2  4  1  0
  4  5  1  0
  5  6  2  0
  6  7  1  0
  7  8  2  0
  8  9  1  0
  9 10  2  0
 10 11  1  0
 11 12  1  0
 12 13  2  0
 13 14  1  0
 14 15  2  0
 15 16  1  0
 16 17  1  0
 17 18  2  0
 17 19  1  0
 19 20  1  0
 20 21  2  0
 21 22  1  0
 22 23  1  0
 23 24  1  0
 23 25  1  0
 23 26  1  0
 22 27  2  0
 27 28  1  0
 28 29  1  0
 29 30  1  0
 29 31  1  0
 29 32  1  0
 28 33  2  0
 15 34  1  0
 34 35  2  0
  6 36  1  0
 36 37  1  0
 37 38  2  0
 37  2  1  0
 10  5  1  0
 35 12  1  0
 33 20  1  0
M  END
>  <Compound_ID>  (571) 
CHEMBL5083239

>  <Molecule Name>  (571) 
nan

>  <Molecular Weight>  (571) 
540.42

>  <AlogP>  (571) 
6.01

>  <Smiles>  (571) 
CC1(C)Oc2c(ncnc2Nc2ccc(NC(=O)Nc3cc(C(F)(F)F)cc(C(F)(F)F)c3)cc2)NC1=O

>  <Standard Type>  (571) 
IC50

>  <Standard Relation>  (571) 
'='

>  <Standard Units>  (571) 
nM

>  <Standard Value>  (571) 
100.0

>  <Assay ChEMBL ID>  (571) 
CHEMBL5045112

>  <Assay Description>  (571) 
Inhibition of wild type TrkA (unknown origin) using poly(Glu: Tyr) as substrate preincubated for 15 mins followed by substrate addition and further incubated for 30 mins in presence of [gamma-33P]ATP by scintillation counting method

>  <BAO Format ID>  (571) 
BAO_0000357

>  <BAO Label>  (571) 
single protein format

>  <Assay Organism>  (571) 
Homo sapiens

>  <Target ChEMBL ID>  (571) 
CHEMBL2815

>  <Target Name>  (571) 
Nerve growth factor receptor Trk-A

>  <Target Organism>  (571) 
Homo sapiens

>  <Target Type>  (571) 
SINGLE PROTEIN

>  <Document ChEMBL ID>  (571) 
CHEMBL5042533

>  <Source Description>  (571) 
Scientific Literature

>  <Document Journal>  (571) 
J Med Chem

>  <Document Year>  (571) 
2022.0

>  <Active>  (571) 
1.0

>  <bits>  (571) 
<rdkit.DataStructs.cDataStructs.ExplicitBitVect object at 0x00000159F5472570>

>  <Group>  (571) 
G2

$$$$

     RDKit          2D

 32 36  0  0  0  0  0  0  0  0999 V2000
    7.3934   -3.6905    0.0000 C   0  0  0  0  0  0  0  0  0  0  0  0
    5.9262   -3.3786    0.0000 O   0  0  0  0  0  0  0  0  0  0  0  0
    5.4627   -1.9520    0.0000 C   0  0  0  0  0  0  0  0  0  0  0  0
    6.4664   -0.8373    0.0000 N   0  0  0  0  0  0  0  0  0  0  0  0
    6.0029    0.5893    0.0000 C   0  0  0  0  0  0  0  0  0  0  0  0
    4.5356    0.9012    0.0000 C   0  0  0  0  0  0  0  0  0  0  0  0
    4.0721    2.3277    0.0000 F   0  0  0  0  0  0  0  0  0  0  0  0
    3.5320   -0.2136    0.0000 C   0  0  0  0  0  0  0  0  0  0  0  0
    3.9955   -1.6402    0.0000 C   0  0  0  0  0  0  0  0  0  0  0  0
    2.9918   -2.7549    0.0000 C   0  0  0  0  0  0  0  0  0  0  0  0
    3.3037   -4.2221    0.0000 C   0  0  0  0  0  0  0  0  0  0  0  0
    2.0046   -4.9721    0.0000 C   0  0  0  0  0  0  0  0  0  0  0  0
    0.8899   -3.9684    0.0000 C   0  0  0  0  0  0  0  0  0  0  0  0
    1.5000   -2.5981    0.0000 N   0  0  0  0  0  0  0  0  0  0  0  0
    0.7500   -1.2990    0.0000 C   0  0  0  0  0  0  0  0  0  0  0  0
    1.5000    0.0000    0.0000 C   0  0  0  0  0  0  0  0  0  0  0  0
    0.7500    1.2990    0.0000 C   0  0  0  0  0  0  0  0  0  0  0  0
   -0.7500    1.2990    0.0000 N   0  0  0  0  0  0  0  0  0  0  0  0
   -1.7537    2.4138    0.0000 N   0  0  0  0  0  0  0  0  0  0  0  0
   -3.1240    1.8037    0.0000 C   0  0  0  0  0  0  0  0  0  0  0  0
   -2.9672    0.3119    0.0000 C   0  0  0  0  0  0  0  0  0  0  0  0
   -4.0819   -0.6918    0.0000 C   0  0  0  0  0  0  0  0  0  0  0  0
   -3.7701   -2.1590    0.0000 O   0  0  0  0  0  0  0  0  0  0  0  0
   -5.5085   -0.2283    0.0000 N   0  0  0  0  0  0  0  0  0  0  0  0
   -6.6232   -1.2320    0.0000 C   0  0  0  0  0  0  0  0  0  0  0  0
   -6.4664   -2.7238    0.0000 C   0  0  0  0  0  0  0  0  0  0  0  0
   -7.8368   -3.3339    0.0000 C   0  0  0  0  0  0  0  0  0  0  0  0
   -8.8405   -2.2192    0.0000 N   0  0  0  0  0  0  0  0  0  0  0  0
  -10.3322   -2.3760    0.0000 C   0  0  0  0  0  0  0  0  0  0  0  0
   -8.0905   -0.9201    0.0000 N   0  0  0  0  0  0  0  0  0  0  0  0
   -1.5000    0.0000    0.0000 C   0  0  0  0  0  0  0  0  0  0  0  0
   -0.7500   -1.2990    0.0000 N   0  0  0  0  0  0  0  0  0  0  0  0
  1  2  1  0
  2  3  1  0
  3  4  2  0
  4  5  1  0
  5  6  2  0
  6  7  1  0
  6  8  1  0
  8  9  2  0
 10  9  1  1
 10 11  1  0
 11 12  1  0
 12 13  1  0
 13 14  1  0
 14 15  1  0
 15 16  1  0
 16 17  2  0
 17 18  1  0
 18 19  1  0
 19 20  2  0
 20 21  1  0
 21 22  1  0
 22 23  2  0
 22 24  1  0
 24 25  1  0
 25 26  1  0
 26 27  2  0
 27 28  1  0
 28 29  1  0
 28 30  1  0
 21 31  2  0
 31 32  1  0
  9  3  1  0
 14 10  1  0
 32 15  2  0
 31 18  1  0
 30 25  2  0
M  END
>  <Compound_ID>  (572) 
CHEMBL3676103

>  <Molecule Name>  (572) 
nan

>  <Molecular Weight>  (572) 
436.45

>  <AlogP>  (572) 
2.6

>  <Smiles>  (572) 
COc1ncc(F)cc1[C@H]1CCCN1c1ccn2ncc(C(=O)Nc3ccn(C)n3)c2n1

>  <Standard Type>  (572) 
IC50

>  <Standard Relation>  (572) 
'='

>  <Standard Units>  (572) 
nM

>  <Standard Value>  (572) 
21.8

>  <Assay ChEMBL ID>  (572) 
CHEMBL3887070

>  <Assay Description>  (572) 
ELISA Assay: An enzyme-linked immunosorbant assay (ELISA) was used to assess TrkA kinase activity in the presence of inhibitors. Immulon 4HBX 384-well microtiter plates (Thermo part #8755) were coated with a 0.025 mg/mL solution of poly (Glu, Ala, Tyr; 6:3:1; Sigma P3899). Various concentrations of test compound, 2.5 nM TrkA (Invitrogen Corp., histidine-tagged recombinant human TrkA, cytoplasmic domain), and 500 uM ATP were incubated for 25 minutes at ambient temperature in the coated plates while shaking The assay buffer consisted of 25 mM MOPS pH 7.5, 0.005% (v/v) Triton X-100 and 5 mM MgCl2. The reaction mixture was removed from the plate by washing with PBS containing 0.1% (v/v) Tween 20. The phosphorylated reaction product was detected using 0.2 ug/mL of a phosphotyrosine specific monoclonal antibody (clone PY20) conjugated to horseradish peroxidase in conjunction with the TMB Peroxidase Substrate System (KPL).

>  <BAO Format ID>  (572) 
BAO_0000357

>  <BAO Label>  (572) 
single protein format

>  <Assay Organism>  (572) 
None

>  <Target ChEMBL ID>  (572) 
CHEMBL2815

>  <Target Name>  (572) 
Nerve growth factor receptor Trk-A

>  <Target Organism>  (572) 
Homo sapiens

>  <Target Type>  (572) 
SINGLE PROTEIN

>  <Document ChEMBL ID>  (572) 
CHEMBL3638907

>  <Source Description>  (572) 
BindingDB Database

>  <Document Journal>  (572) 
nan

>  <Document Year>  (572) 
2014.0

>  <Active>  (572) 
1.0

>  <bits>  (572) 
<rdkit.DataStructs.cDataStructs.ExplicitBitVect object at 0x00000159F5472500>

>  <Group>  (572) 
G2

$$$$

     RDKit          2D

 44 49  0  0  0  0  0  0  0  0999 V2000
    1.4277  -13.6994    0.0000 C   0  0  0  0  0  0  0  0  0  0  0  0
    2.4314  -12.5847    0.0000 C   0  0  0  0  0  0  0  0  0  0  0  0
    1.9679  -11.1581    0.0000 C   0  0  0  0  0  0  0  0  0  0  0  0
    2.9716  -10.0434    0.0000 C   0  0  0  0  0  0  0  0  0  0  0  0
    2.5081   -8.6168    0.0000 N   0  0  0  0  0  0  0  0  0  0  0  0
    1.0409   -8.3049    0.0000 C   0  0  0  0  0  0  0  0  0  0  0  0
    0.0372   -9.4196    0.0000 O   0  0  0  0  0  0  0  0  0  0  0  0
    0.5773   -6.8783    0.0000 N   0  0  0  0  0  0  0  0  0  0  0  0
   -0.8899   -6.5665    0.0000 C   0  0  0  0  0  0  0  0  0  0  0  0
   -2.0046   -7.5702    0.0000 C   0  0  0  0  0  0  0  0  0  0  0  0
   -3.3037   -6.8202    0.0000 C   0  0  0  0  0  0  0  0  0  0  0  0
   -4.6740   -7.4303    0.0000 C   0  0  0  0  0  0  0  0  0  0  0  0
   -5.2841   -6.0600    0.0000 C   0  0  0  0  0  0  0  0  0  0  0  0
   -4.0639   -8.8006    0.0000 C   0  0  0  0  0  0  0  0  0  0  0  0
   -6.0443   -8.0404    0.0000 C   0  0  0  0  0  0  0  0  0  0  0  0
   -2.9918   -5.3529    0.0000 N   0  0  0  0  0  0  0  0  0  0  0  0
   -1.5000   -5.1962    0.0000 N   0  0  0  0  0  0  0  0  0  0  0  0
   -0.7500   -3.8971    0.0000 C   0  0  0  0  0  0  0  0  0  0  0  0
    0.7500   -3.8971    0.0000 C   0  0  0  0  0  0  0  0  0  0  0  0
    1.5000   -2.5981    0.0000 C   0  0  0  0  0  0  0  0  0  0  0  0
    0.7500   -1.2990    0.0000 C   0  0  0  0  0  0  0  0  0  0  0  0
    1.5000    0.0000    0.0000 C   0  0  0  0  0  0  0  0  0  0  0  0
    0.7500    1.2990    0.0000 C   0  0  0  0  0  0  0  0  0  0  0  0
   -0.7500    1.2990    0.0000 C   0  0  0  0  0  0  0  0  0  0  0  0
   -1.5000    0.0000    0.0000 C   0  0  0  0  0  0  0  0  0  0  0  0
   -0.7500   -1.2990    0.0000 C   0  0  0  0  0  0  0  0  0  0  0  0
   -1.5000   -2.5981    0.0000 C   0  0  0  0  0  0  0  0  0  0  0  0
    4.4388  -10.3552    0.0000 C   0  0  0  0  0  0  0  0  0  0  0  0
    4.9023  -11.7818    0.0000 C   0  0  0  0  0  0  0  0  0  0  0  0
    3.8986  -12.8965    0.0000 C   0  0  0  0  0  0  0  0  0  0  0  0
    4.3622  -14.3231    0.0000 N   0  0  0  0  0  0  0  0  0  0  0  0
    5.8294  -14.6350    0.0000 C   0  0  0  0  0  0  0  0  0  0  0  0
    6.8331  -13.5203    0.0000 N   0  0  0  0  0  0  0  0  0  0  0  0
    8.3003  -13.8321    0.0000 C   0  0  0  0  0  0  0  0  0  0  0  0
    8.7638  -15.2587    0.0000 N   0  0  0  0  0  0  0  0  0  0  0  0
    7.7601  -16.3734    0.0000 C   0  0  0  0  0  0  0  0  0  0  0  0
    6.2929  -16.0616    0.0000 C   0  0  0  0  0  0  0  0  0  0  0  0
    5.2892  -17.1763    0.0000 O   0  0  0  0  0  0  0  0  0  0  0  0
    5.7528  -18.6029    0.0000 C   0  0  0  0  0  0  0  0  0  0  0  0
    5.7004  -20.1020    0.0000 C   0  0  0  0  0  0  0  0  0  0  0  0
    4.2673  -18.8116    0.0000 C   0  0  0  0  0  0  0  0  0  0  0  0
    7.2200  -18.9148    0.0000 C   0  0  0  0  0  0  0  0  0  0  0  0
    7.6835  -20.3413    0.0000 O   0  0  0  0  0  0  0  0  0  0  0  0
    8.2237  -17.8000    0.0000 N   0  0  0  0  0  0  0  0  0  0  0  0
  1  2  1  0
  2  3  2  0
  3  4  1  0
  4  5  1  0
  5  6  1  0
  6  7  2  0
  6  8  1  0
  8  9  1  0
  9 10  2  0
 10 11  1  0
 11 12  1  0
 12 13  1  0
 12 14  1  0
 12 15  1  0
 11 16  2  0
 16 17  1  0
 17 18  1  0
 18 19  2  0
 19 20  1  0
 20 21  2  0
 21 22  1  0
 22 23  2  0
 23 24  1  0
 24 25  2  0
 25 26  1  0
 26 27  2  0
  4 28  2  0
 28 29  1  0
 29 30  2  0
 30 31  1  0
 31 32  1  0
 32 33  2  0
 33 34  1  0
 34 35  2  0
 35 36  1  0
 36 37  2  0
 37 38  1  0
 38 39  1  0
 39 40  1  0
 39 41  1  0
 39 42  1  0
 42 43  2  0
 42 44  1  0
 30  2  1  0
 37 32  1  0
 17  9  1  0
 27 18  1  0
 44 36  1  0
 26 21  1  0
M  END
>  <Compound_ID>  (573) 
CHEMBL5079503

>  <Molecule Name>  (573) 
nan

>  <Molecular Weight>  (573) 
590.69

>  <AlogP>  (573) 
6.92

>  <Smiles>  (573) 
Cc1cc(NC(=O)Nc2cc(C(C)(C)C)nn2-c2ccc3ccccc3c2)ccc1Nc1ncnc2c1OC(C)(C)C(=O)N2

>  <Standard Type>  (573) 
IC50

>  <Standard Relation>  (573) 
'='

>  <Standard Units>  (573) 
nM

>  <Standard Value>  (573) 
41.0

>  <Assay ChEMBL ID>  (573) 
CHEMBL5045112

>  <Assay Description>  (573) 
Inhibition of wild type TrkA (unknown origin) using poly(Glu: Tyr) as substrate preincubated for 15 mins followed by substrate addition and further incubated for 30 mins in presence of [gamma-33P]ATP by scintillation counting method

>  <BAO Format ID>  (573) 
BAO_0000357

>  <BAO Label>  (573) 
single protein format

>  <Assay Organism>  (573) 
Homo sapiens

>  <Target ChEMBL ID>  (573) 
CHEMBL2815

>  <Target Name>  (573) 
Nerve growth factor receptor Trk-A

>  <Target Organism>  (573) 
Homo sapiens

>  <Target Type>  (573) 
SINGLE PROTEIN

>  <Document ChEMBL ID>  (573) 
CHEMBL5042533

>  <Source Description>  (573) 
Scientific Literature

>  <Document Journal>  (573) 
J Med Chem

>  <Document Year>  (573) 
2022.0

>  <Active>  (573) 
1.0

>  <bits>  (573) 
<rdkit.DataStructs.cDataStructs.ExplicitBitVect object at 0x00000159F54720A0>

>  <Group>  (573) 
G2

$$$$

     RDKit          2D

 34 37  0  0  0  0  0  0  0  0999 V2000
   -0.4895   -5.3743    0.0000 C   0  0  0  0  0  0  0  0  0  0  0  0
   -0.7500   -3.8971    0.0000 C   0  0  0  0  0  0  0  0  0  0  0  0
   -2.1595   -4.4101    0.0000 C   0  0  0  0  0  0  0  0  0  0  0  0
   -1.5000   -2.5981    0.0000 O   0  0  0  0  0  0  0  0  0  0  0  0
   -0.7500   -1.2990    0.0000 C   0  0  0  0  0  0  0  0  0  0  0  0
    0.7500   -1.2990    0.0000 C   0  0  0  0  0  0  0  0  0  0  0  0
    1.5000    0.0000    0.0000 N   0  0  0  0  0  0  0  0  0  0  0  0
    0.7500    1.2990    0.0000 C   0  0  0  0  0  0  0  0  0  0  0  0
   -0.7500    1.2990    0.0000 N   0  0  0  0  0  0  0  0  0  0  0  0
   -1.5000    0.0000    0.0000 C   0  0  0  0  0  0  0  0  0  0  0  0
   -3.0000    0.0000    0.0000 N   0  0  0  0  0  0  0  0  0  0  0  0
   -3.7500    1.2990    0.0000 C   0  0  0  0  0  0  0  0  0  0  0  0
   -3.0000    2.5981    0.0000 C   0  0  0  0  0  0  0  0  0  0  0  0
   -3.7500    3.8971    0.0000 C   0  0  0  0  0  0  0  0  0  0  0  0
   -5.2500    3.8971    0.0000 C   0  0  0  0  0  0  0  0  0  0  0  0
   -6.0000    5.1962    0.0000 N   0  0  0  0  0  0  0  0  0  0  0  0
   -5.2500    6.4952    0.0000 C   0  0  0  0  0  0  0  0  0  0  0  0
   -3.7500    6.4952    0.0000 O   0  0  0  0  0  0  0  0  0  0  0  0
   -6.0000    7.7942    0.0000 N   0  0  0  0  0  0  0  0  0  0  0  0
   -5.2500    9.0933    0.0000 C   0  0  0  0  0  0  0  0  0  0  0  0
   -3.7500    9.0933    0.0000 C   0  0  0  0  0  0  0  0  0  0  0  0
   -3.0000   10.3923    0.0000 C   0  0  0  0  0  0  0  0  0  0  0  0
   -3.7500   11.6913    0.0000 C   0  0  0  0  0  0  0  0  0  0  0  0
   -5.2500   11.6913    0.0000 C   0  0  0  0  0  0  0  0  0  0  0  0
   -6.0000   12.9904    0.0000 C   0  0  0  0  0  0  0  0  0  0  0  0
   -6.7500   14.2894    0.0000 F   0  0  0  0  0  0  0  0  0  0  0  0
   -4.7010   13.7404    0.0000 F   0  0  0  0  0  0  0  0  0  0  0  0
   -7.2990   12.2404    0.0000 F   0  0  0  0  0  0  0  0  0  0  0  0
   -6.0000   10.3923    0.0000 C   0  0  0  0  0  0  0  0  0  0  0  0
   -6.0000    2.5981    0.0000 C   0  0  0  0  0  0  0  0  0  0  0  0
   -5.2500    1.2990    0.0000 C   0  0  0  0  0  0  0  0  0  0  0  0
    1.5000   -2.5981    0.0000 N   0  0  0  0  0  0  0  0  0  0  0  0
    0.7500   -3.8971    0.0000 C   0  0  0  0  0  0  0  0  0  0  0  0
    1.5000   -5.1962    0.0000 O   0  0  0  0  0  0  0  0  0  0  0  0
  1  2  1  0
  2  3  1  0
  2  4  1  0
  4  5  1  0
  5  6  2  0
  6  7  1  0
  7  8  2  0
  8  9  1  0
  9 10  2  0
 10 11  1  0
 11 12  1  0
 12 13  2  0
 13 14  1  0
 14 15  2  0
 15 16  1  0
 16 17  1  0
 17 18  2  0
 17 19  1  0
 19 20  1  0
 20 21  2  0
 21 22  1  0
 22 23  2  0
 23 24  1  0
 24 25  1  0
 25 26  1  0
 25 27  1  0
 25 28  1  0
 24 29  2  0
 15 30  1  0
 30 31  2  0
  6 32  1  0
 32 33  1  0
 33 34  2  0
 33  2  1  0
 10  5  1  0
 31 12  1  0
 29 20  1  0
M  END
>  <Compound_ID>  (574) 
CHEMBL5088342

>  <Molecule Name>  (574) 
nan

>  <Molecular Weight>  (574) 
472.43

>  <AlogP>  (574) 
4.99

>  <Smiles>  (574) 
CC1(C)Oc2c(ncnc2Nc2ccc(NC(=O)Nc3cccc(C(F)(F)F)c3)cc2)NC1=O

>  <Standard Type>  (574) 
IC50

>  <Standard Relation>  (574) 
'='

>  <Standard Units>  (574) 
nM

>  <Standard Value>  (574) 
76.0

>  <Assay ChEMBL ID>  (574) 
CHEMBL5045112

>  <Assay Description>  (574) 
Inhibition of wild type TrkA (unknown origin) using poly(Glu: Tyr) as substrate preincubated for 15 mins followed by substrate addition and further incubated for 30 mins in presence of [gamma-33P]ATP by scintillation counting method

>  <BAO Format ID>  (574) 
BAO_0000357

>  <BAO Label>  (574) 
single protein format

>  <Assay Organism>  (574) 
Homo sapiens

>  <Target ChEMBL ID>  (574) 
CHEMBL2815

>  <Target Name>  (574) 
Nerve growth factor receptor Trk-A

>  <Target Organism>  (574) 
Homo sapiens

>  <Target Type>  (574) 
SINGLE PROTEIN

>  <Document ChEMBL ID>  (574) 
CHEMBL5042533

>  <Source Description>  (574) 
Scientific Literature

>  <Document Journal>  (574) 
J Med Chem

>  <Document Year>  (574) 
2022.0

>  <Active>  (574) 
1.0

>  <bits>  (574) 
<rdkit.DataStructs.cDataStructs.ExplicitBitVect object at 0x00000159F5471D20>

>  <Group>  (574) 
G2

$$$$

     RDKit          2D

 35 40  0  0  0  0  0  0  0  0999 V2000
   -2.9520   -4.6564    0.0000 C   0  0  0  0  0  0  0  0  0  0  0  0
   -2.6401   -3.1891    0.0000 C   0  0  0  0  0  0  0  0  0  0  0  0
   -3.7548   -2.1855    0.0000 C   0  0  0  0  0  0  0  0  0  0  0  0
   -1.2135   -2.7256    0.0000 N   0  0  0  0  0  0  0  0  0  0  0  0
   -0.0000   -3.6073    0.0000 C   0  0  0  0  0  0  0  0  0  0  0  0
    1.2135   -2.7256    0.0000 C   0  0  0  0  0  0  0  0  0  0  0  0
    2.6401   -3.1891    0.0000 C   0  0  0  0  0  0  0  0  0  0  0  0
    3.7548   -2.1855    0.0000 O   0  0  0  0  0  0  0  0  0  0  0  0
    2.9520   -4.6564    0.0000 C   0  0  0  0  0  0  0  0  0  0  0  0
    1.8373   -5.6601    0.0000 C   0  0  0  0  0  0  0  0  0  0  0  0
    2.1491   -7.1273    0.0000 C   0  0  0  0  0  0  0  0  0  0  0  0
    3.5757   -7.5908    0.0000 N   0  0  0  0  0  0  0  0  0  0  0  0
    4.6904   -6.5871    0.0000 C   0  0  0  0  0  0  0  0  0  0  0  0
    6.1170   -7.0506    0.0000 N   0  0  0  0  0  0  0  0  0  0  0  0
    6.4289   -8.5179    0.0000 C   0  0  0  0  0  0  0  0  0  0  0  0
    5.3142   -9.5216    0.0000 O   0  0  0  0  0  0  0  0  0  0  0  0
    7.8555   -8.9814    0.0000 C   0  0  0  0  0  0  0  0  0  0  0  0
    8.1673  -10.4486    0.0000 C   0  0  0  0  0  0  0  0  0  0  0  0
    9.5377  -11.0587    0.0000 N   0  0  0  0  0  0  0  0  0  0  0  0
    9.3809  -12.5505    0.0000 C   0  0  0  0  0  0  0  0  0  0  0  0
   10.4956  -13.5542    0.0000 C   0  0  0  0  0  0  0  0  0  0  0  0
   11.9628  -13.8661    0.0000 C   0  0  0  0  0  0  0  0  0  0  0  0
   10.9591  -14.9808    0.0000 C   0  0  0  0  0  0  0  0  0  0  0  0
    7.9136  -12.8624    0.0000 O   0  0  0  0  0  0  0  0  0  0  0  0
    7.1636  -11.5633    0.0000 C   0  0  0  0  0  0  0  0  0  0  0  0
    5.6719  -11.4065    0.0000 C   0  0  0  0  0  0  0  0  0  0  0  0
    4.3015  -12.0166    0.0000 C   0  0  0  0  0  0  0  0  0  0  0  0
    4.4583  -10.5249    0.0000 C   0  0  0  0  0  0  0  0  0  0  0  0
    4.3786   -5.1199    0.0000 C   0  0  0  0  0  0  0  0  0  0  0  0
    0.7500   -1.2990    0.0000 C   0  0  0  0  0  0  0  0  0  0  0  0
    1.5000    0.0000    0.0000 C   0  0  0  0  0  0  0  0  0  0  0  0
    0.7500    1.2990    0.0000 N   0  0  0  0  0  0  0  0  0  0  0  0
   -0.7500    1.2990    0.0000 C   0  0  0  0  0  0  0  0  0  0  0  0
   -1.5000    0.0000    0.0000 C   0  0  0  0  0  0  0  0  0  0  0  0
   -0.7500   -1.2990    0.0000 C   0  0  0  0  0  0  0  0  0  0  0  0
  1  2  1  0
  2  3  1  0
  2  4  1  0
  4  5  1  0
  5  6  2  0
  6  7  1  0
  7  8  2  0
  7  9  1  0
  9 10  2  0
 10 11  1  0
 11 12  2  0
 12 13  1  0
 13 14  1  0
 14 15  1  0
 15 16  2  0
 15 17  1  0
 17 18  1  0
 18 19  1  0
 19 20  2  0
 20 21  1  0
 21 22  1  0
 22 23  1  0
 20 24  1  0
 24 25  1  0
 25 26  1  0
 26 27  1  0
 27 28  1  0
 13 29  2  0
  6 30  1  0
 30 31  2  0
 31 32  1  0
 32 33  2  0
 33 34  1  0
 34 35  2  0
 35  4  1  0
 29  9  1  0
 35 30  1  0
 25 18  2  0
 28 26  1  0
 23 21  1  0
M  END
>  <Compound_ID>  (575) 
CHEMBL3922653

>  <Molecule Name>  (575) 
nan

>  <Molecular Weight>  (575) 
469.55

>  <AlogP>  (575) 
5.17

>  <Smiles>  (575) 
CC(C)n1cc(C(=O)c2ccnc(NC(=O)Cc3nc(C4CC4)oc3C3CC3)c2)c2cnccc21

>  <Standard Type>  (575) 
IC50

>  <Standard Relation>  (575) 
'='

>  <Standard Units>  (575) 
nM

>  <Standard Value>  (575) 
26.1

>  <Assay ChEMBL ID>  (575) 
CHEMBL3887111

>  <Assay Description>  (575) 
HTRF Assay: Isolated TRK Enzyme assays use the HTRF KinEASE-TK kit (Cisbio Cat#62TK0PEJ) with recombinant His-tagged cytoplasmic domains of each TRK receptor sourced from Invitrogen (see table below). This activity-assay measures the phosphorylation of tyrosine residues within a substrate from the HTRF kit which has been validated by Cisbio for a variety of tyrosine kinases including the TRK receptors.Assay Details: Invitrogen Amino FAC FAC Assay ReactionTarget Cat# acids enzyme ATP TimeTRKA PV3144 aa 441-4 nM 40 uM 35 min (NTRK1) 796 TRKB PV3616 aa 526-1 nM 1.4 uM 40 min (NTRK2) 838 TRKC PV3617 aa 510- 10 nM 15 uM 30 min (NTRK3) 8250.5 mM stock solutions of test compounds are prepared and serially diluted in 100% DMSO. A standard curve using the compound of Example 135 disclosed in WO2005/116035 of 150 uM is also prepared on each test plate. High percentage effect (HPE) is defined by 150 uM.

>  <BAO Format ID>  (575) 
BAO_0000357

>  <BAO Label>  (575) 
single protein format

>  <Assay Organism>  (575) 
None

>  <Target ChEMBL ID>  (575) 
CHEMBL2815

>  <Target Name>  (575) 
Nerve growth factor receptor Trk-A

>  <Target Organism>  (575) 
Homo sapiens

>  <Target Type>  (575) 
SINGLE PROTEIN

>  <Document ChEMBL ID>  (575) 
CHEMBL3886170

>  <Source Description>  (575) 
BindingDB Database

>  <Document Journal>  (575) 
nan

>  <Document Year>  (575) 
2015.0

>  <Active>  (575) 
1.0

>  <bits>  (575) 
<rdkit.DataStructs.cDataStructs.ExplicitBitVect object at 0x00000159F5471BD0>

>  <Group>  (575) 
G2

$$$$

     RDKit          2D

 30 33  0  0  0  0  0  0  0  0999 V2000
   -2.9520   -4.6564    0.0000 C   0  0  0  0  0  0  0  0  0  0  0  0
   -2.6401   -3.1891    0.0000 C   0  0  0  0  0  0  0  0  0  0  0  0
   -3.7548   -2.1855    0.0000 C   0  0  0  0  0  0  0  0  0  0  0  0
   -1.2135   -2.7256    0.0000 N   0  0  0  0  0  0  0  0  0  0  0  0
   -0.0000   -3.6073    0.0000 C   0  0  0  0  0  0  0  0  0  0  0  0
    1.2135   -2.7256    0.0000 C   0  0  0  0  0  0  0  0  0  0  0  0
    2.6401   -3.1891    0.0000 C   0  0  0  0  0  0  0  0  0  0  0  0
    3.7548   -2.1855    0.0000 O   0  0  0  0  0  0  0  0  0  0  0  0
    2.9520   -4.6564    0.0000 C   0  0  0  0  0  0  0  0  0  0  0  0
    1.8373   -5.6601    0.0000 C   0  0  0  0  0  0  0  0  0  0  0  0
    2.1491   -7.1273    0.0000 N   0  0  0  0  0  0  0  0  0  0  0  0
    3.5757   -7.5908    0.0000 C   0  0  0  0  0  0  0  0  0  0  0  0
    4.6904   -6.5871    0.0000 C   0  0  0  0  0  0  0  0  0  0  0  0
    6.1170   -7.0506    0.0000 N   0  0  0  0  0  0  0  0  0  0  0  0
    6.4289   -8.5179    0.0000 C   0  0  0  0  0  0  0  0  0  0  0  0
    5.3142   -9.5216    0.0000 O   0  0  0  0  0  0  0  0  0  0  0  0
    7.8555   -8.9814    0.0000 C   0  0  0  0  0  0  0  0  0  0  0  0
    8.1673  -10.4486    0.0000 N   0  0  0  0  0  0  0  0  0  0  0  0
    9.5377  -11.0587    0.0000 C   0  0  0  0  0  0  0  0  0  0  0  0
    9.3809  -12.5505    0.0000 C   0  0  0  0  0  0  0  0  0  0  0  0
   10.4956  -13.5542    0.0000 Cl  0  0  0  0  0  0  0  0  0  0  0  0
    7.9136  -12.8624    0.0000 C   0  0  0  0  0  0  0  0  0  0  0  0
    7.1636  -11.5633    0.0000 N   0  0  0  0  0  0  0  0  0  0  0  0
    4.3786   -5.1199    0.0000 C   0  0  0  0  0  0  0  0  0  0  0  0
    0.7500   -1.2990    0.0000 C   0  0  0  0  0  0  0  0  0  0  0  0
    1.5000    0.0000    0.0000 C   0  0  0  0  0  0  0  0  0  0  0  0
    0.7500    1.2990    0.0000 N   0  0  0  0  0  0  0  0  0  0  0  0
   -0.7500    1.2990    0.0000 C   0  0  0  0  0  0  0  0  0  0  0  0
   -1.5000    0.0000    0.0000 C   0  0  0  0  0  0  0  0  0  0  0  0
   -0.7500   -1.2990    0.0000 C   0  0  0  0  0  0  0  0  0  0  0  0
  1  2  1  0
  2  3  1  0
  2  4  1  0
  4  5  1  0
  5  6  2  0
  6  7  1  0
  7  8  2  0
  7  9  1  0
  9 10  2  0
 10 11  1  0
 11 12  2  0
 12 13  1  0
 13 14  1  0
 14 15  1  0
 15 16  2  0
 15 17  1  0
 17 18  1  0
 18 19  1  0
 19 20  2  0
 20 21  1  0
 20 22  1  0
 22 23  2  0
 13 24  2  0
  6 25  1  0
 25 26  2  0
 26 27  1  0
 27 28  2  0
 28 29  1  0
 29 30  2  0
 30  4  1  0
 24  9  1  0
 30 25  1  0
 23 18  1  0
M  END
>  <Compound_ID>  (576) 
CHEMBL3955622

>  <Molecule Name>  (576) 
nan

>  <Molecular Weight>  (576) 
422.88

>  <AlogP>  (576) 
3.73

>  <Smiles>  (576) 
CC(C)n1cc(C(=O)c2cncc(NC(=O)Cn3cc(Cl)cn3)c2)c2cnccc21

>  <Standard Type>  (576) 
IC50

>  <Standard Relation>  (576) 
'='

>  <Standard Units>  (576) 
nM

>  <Standard Value>  (576) 
41.8

>  <Assay ChEMBL ID>  (576) 
CHEMBL3887111

>  <Assay Description>  (576) 
HTRF Assay: Isolated TRK Enzyme assays use the HTRF KinEASE-TK kit (Cisbio Cat#62TK0PEJ) with recombinant His-tagged cytoplasmic domains of each TRK receptor sourced from Invitrogen (see table below). This activity-assay measures the phosphorylation of tyrosine residues within a substrate from the HTRF kit which has been validated by Cisbio for a variety of tyrosine kinases including the TRK receptors.Assay Details: Invitrogen Amino FAC FAC Assay ReactionTarget Cat# acids enzyme ATP TimeTRKA PV3144 aa 441-4 nM 40 uM 35 min (NTRK1) 796 TRKB PV3616 aa 526-1 nM 1.4 uM 40 min (NTRK2) 838 TRKC PV3617 aa 510- 10 nM 15 uM 30 min (NTRK3) 8250.5 mM stock solutions of test compounds are prepared and serially diluted in 100% DMSO. A standard curve using the compound of Example 135 disclosed in WO2005/116035 of 150 uM is also prepared on each test plate. High percentage effect (HPE) is defined by 150 uM.

>  <BAO Format ID>  (576) 
BAO_0000357

>  <BAO Label>  (576) 
single protein format

>  <Assay Organism>  (576) 
None

>  <Target ChEMBL ID>  (576) 
CHEMBL2815

>  <Target Name>  (576) 
Nerve growth factor receptor Trk-A

>  <Target Organism>  (576) 
Homo sapiens

>  <Target Type>  (576) 
SINGLE PROTEIN

>  <Document ChEMBL ID>  (576) 
CHEMBL3886170

>  <Source Description>  (576) 
BindingDB Database

>  <Document Journal>  (576) 
nan

>  <Document Year>  (576) 
2015.0

>  <Active>  (576) 
1.0

>  <bits>  (576) 
<rdkit.DataStructs.cDataStructs.ExplicitBitVect object at 0x00000159F5471AF0>

>  <Group>  (576) 
G2

$$$$

     RDKit          2D

 27 31  0  0  0  0  0  0  0  0999 V2000
   -3.7548   -2.1855    0.0000 O   0  0  0  0  0  0  0  0  0  0  0  0
   -2.6401   -3.1891    0.0000 C   0  0  0  0  0  0  0  0  0  0  0  0
   -2.9520   -4.6564    0.0000 N   0  0  0  0  0  0  0  0  0  0  0  0
   -4.3786   -5.1199    0.0000 C   0  0  0  0  0  0  0  0  0  0  0  0
   -5.3823   -6.2346    0.0000 C   0  0  0  0  0  0  0  0  0  0  0  0
   -5.8458   -4.8080    0.0000 C   0  0  0  0  0  0  0  0  0  0  0  0
   -1.2135   -2.7256    0.0000 C   0  0  0  0  0  0  0  0  0  0  0  0
   -0.0000   -3.6073    0.0000 C   0  0  0  0  0  0  0  0  0  0  0  0
    1.2135   -2.7256    0.0000 N   0  0  0  0  0  0  0  0  0  0  0  0
    0.7500   -1.2990    0.0000 N   0  0  0  0  0  0  0  0  0  0  0  0
    1.5000    0.0000    0.0000 C   0  0  0  0  0  0  0  0  0  0  0  0
    0.7500    1.2990    0.0000 C   0  0  0  0  0  0  0  0  0  0  0  0
   -0.7500    1.2990    0.0000 C   0  0  0  0  0  0  0  0  0  0  0  0
   -1.5000    2.5981    0.0000 N   0  0  0  0  0  0  0  0  0  0  0  0
   -2.9918    2.7549    0.0000 C   0  0  0  0  0  0  0  0  0  0  0  0
   -3.3037    4.2221    0.0000 C   0  0  0  0  0  0  0  0  0  0  0  0
   -2.0046    4.9721    0.0000 C   0  0  0  0  0  0  0  0  0  0  0  0
   -0.8899    3.9684    0.0000 C   0  0  0  0  0  0  0  0  0  0  0  0
    0.5773    4.2803    0.0000 C   0  0  0  0  0  0  0  0  0  0  0  0
    1.5810    3.1655    0.0000 C   0  0  0  0  0  0  0  0  0  0  0  0
    3.0482    3.4774    0.0000 N   0  0  0  0  0  0  0  0  0  0  0  0
    3.5118    4.9040    0.0000 C   0  0  0  0  0  0  0  0  0  0  0  0
    2.5081    6.0187    0.0000 C   0  0  0  0  0  0  0  0  0  0  0  0
    2.9716    7.4453    0.0000 F   0  0  0  0  0  0  0  0  0  0  0  0
    1.0409    5.7068    0.0000 C   0  0  0  0  0  0  0  0  0  0  0  0
   -1.5000    0.0000    0.0000 N   0  0  0  0  0  0  0  0  0  0  0  0
   -0.7500   -1.2990    0.0000 C   0  0  0  0  0  0  0  0  0  0  0  0
  1  2  2  0
  2  3  1  0
  3  4  1  0
  4  5  1  0
  5  6  1  0
  2  7  1  0
  7  8  1  0
  8  9  2  0
  9 10  1  0
 10 11  1  0
 11 12  2  0
 12 13  1  0
 13 14  1  0
 14 15  1  0
 15 16  1  0
 16 17  1  0
 17 18  1  0
 18 19  1  6
 19 20  2  0
 20 21  1  0
 21 22  2  0
 22 23  1  0
 23 24  1  0
 23 25  2  0
 13 26  2  0
 26 27  1  0
  6  4  1  0
 27  7  2  0
 27 10  1  0
 18 14  1  0
 25 19  1  0
M  END
>  <Compound_ID>  (577) 
CHEMBL3675929

>  <Molecule Name>  (577) 
nan

>  <Molecular Weight>  (577) 
366.4

>  <AlogP>  (577) 
2.5

>  <Smiles>  (577) 
O=C(NC1CC1)c1cnn2ccc(N3CCC[C@@H]3c3cncc(F)c3)nc12

>  <Standard Type>  (577) 
IC50

>  <Standard Relation>  (577) 
'='

>  <Standard Units>  (577) 
nM

>  <Standard Value>  (577) 
7.4

>  <Assay ChEMBL ID>  (577) 
CHEMBL3887070

>  <Assay Description>  (577) 
ELISA Assay: An enzyme-linked immunosorbant assay (ELISA) was used to assess TrkA kinase activity in the presence of inhibitors. Immulon 4HBX 384-well microtiter plates (Thermo part #8755) were coated with a 0.025 mg/mL solution of poly (Glu, Ala, Tyr; 6:3:1; Sigma P3899). Various concentrations of test compound, 2.5 nM TrkA (Invitrogen Corp., histidine-tagged recombinant human TrkA, cytoplasmic domain), and 500 uM ATP were incubated for 25 minutes at ambient temperature in the coated plates while shaking The assay buffer consisted of 25 mM MOPS pH 7.5, 0.005% (v/v) Triton X-100 and 5 mM MgCl2. The reaction mixture was removed from the plate by washing with PBS containing 0.1% (v/v) Tween 20. The phosphorylated reaction product was detected using 0.2 ug/mL of a phosphotyrosine specific monoclonal antibody (clone PY20) conjugated to horseradish peroxidase in conjunction with the TMB Peroxidase Substrate System (KPL).

>  <BAO Format ID>  (577) 
BAO_0000357

>  <BAO Label>  (577) 
single protein format

>  <Assay Organism>  (577) 
None

>  <Target ChEMBL ID>  (577) 
CHEMBL2815

>  <Target Name>  (577) 
Nerve growth factor receptor Trk-A

>  <Target Organism>  (577) 
Homo sapiens

>  <Target Type>  (577) 
SINGLE PROTEIN

>  <Document ChEMBL ID>  (577) 
CHEMBL3638907

>  <Source Description>  (577) 
BindingDB Database

>  <Document Journal>  (577) 
nan

>  <Document Year>  (577) 
2014.0

>  <Active>  (577) 
1.0

>  <bits>  (577) 
<rdkit.DataStructs.cDataStructs.ExplicitBitVect object at 0x00000159F5470F90>

>  <Group>  (577) 
G2

$$$$

     RDKit          2D

 29 32  0  0  0  0  0  0  0  0999 V2000
   -4.8421   -3.6933    0.0000 C   0  0  0  0  0  0  0  0  0  0  0  0
   -4.3786   -5.1199    0.0000 C   0  0  0  0  0  0  0  0  0  0  0  0
   -3.9150   -6.5465    0.0000 C   0  0  0  0  0  0  0  0  0  0  0  0
   -5.8051   -5.5834    0.0000 O   0  0  0  0  0  0  0  0  0  0  0  0
   -2.9520   -4.6564    0.0000 C   0  0  0  0  0  0  0  0  0  0  0  0
   -1.8373   -5.6601    0.0000 O   0  0  0  0  0  0  0  0  0  0  0  0
   -2.6401   -3.1891    0.0000 N   0  0  0  0  0  0  0  0  0  0  0  0
   -1.2135   -2.7256    0.0000 C   0  0  0  0  0  0  0  0  0  0  0  0
   -0.0000   -3.6073    0.0000 C   0  0  0  0  0  0  0  0  0  0  0  0
    1.2135   -2.7256    0.0000 N   0  0  0  0  0  0  0  0  0  0  0  0
    0.7500   -1.2990    0.0000 N   0  0  0  0  0  0  0  0  0  0  0  0
    1.5000    0.0000    0.0000 C   0  0  0  0  0  0  0  0  0  0  0  0
    0.7500    1.2990    0.0000 C   0  0  0  0  0  0  0  0  0  0  0  0
   -0.7500    1.2990    0.0000 C   0  0  0  0  0  0  0  0  0  0  0  0
   -1.5000    2.5981    0.0000 N   0  0  0  0  0  0  0  0  0  0  0  0
   -2.9918    2.7549    0.0000 C   0  0  0  0  0  0  0  0  0  0  0  0
   -3.3037    4.2221    0.0000 C   0  0  0  0  0  0  0  0  0  0  0  0
   -2.0046    4.9721    0.0000 C   0  0  0  0  0  0  0  0  0  0  0  0
   -0.8899    3.9684    0.0000 C   0  0  0  0  0  0  0  0  0  0  0  0
    0.5773    4.2803    0.0000 C   0  0  0  0  0  0  0  0  0  0  0  0
    1.5810    3.1655    0.0000 C   0  0  0  0  0  0  0  0  0  0  0  0
    3.0482    3.4774    0.0000 C   0  0  0  0  0  0  0  0  0  0  0  0
    4.0519    2.3627    0.0000 F   0  0  0  0  0  0  0  0  0  0  0  0
    3.5118    4.9040    0.0000 C   0  0  0  0  0  0  0  0  0  0  0  0
    2.5081    6.0187    0.0000 C   0  0  0  0  0  0  0  0  0  0  0  0
    1.0409    5.7068    0.0000 C   0  0  0  0  0  0  0  0  0  0  0  0
    0.0372    6.8216    0.0000 F   0  0  0  0  0  0  0  0  0  0  0  0
   -1.5000    0.0000    0.0000 N   0  0  0  0  0  0  0  0  0  0  0  0
   -0.7500   -1.2990    0.0000 C   0  0  0  0  0  0  0  0  0  0  0  0
  1  2  1  0
  2  3  1  0
  2  4  1  0
  2  5  1  0
  5  6  2  0
  5  7  1  0
  7  8  1  0
  8  9  1  0
  9 10  2  0
 10 11  1  0
 11 12  1  0
 12 13  2  0
 13 14  1  0
 14 15  1  0
 15 16  1  0
 16 17  1  0
 17 18  1  0
 18 19  1  0
 19 20  1  6
 20 21  2  0
 21 22  1  0
 22 23  1  0
 22 24  2  0
 24 25  1  0
 25 26  2  0
 26 27  1  0
 14 28  2  0
 28 29  1  0
 29  8  2  0
 29 11  1  0
 19 15  1  0
 26 20  1  0
M  END
>  <Compound_ID>  (578) 
CHEMBL4107176

>  <Molecule Name>  (578) 
nan

>  <Molecular Weight>  (578) 
401.42

>  <AlogP>  (578) 
3.06

>  <Smiles>  (578) 
CC(C)(O)C(=O)Nc1cnn2ccc(N3CCC[C@@H]3c3cc(F)ccc3F)nc12

>  <Standard Type>  (578) 
IC50

>  <Standard Relation>  (578) 
'='

>  <Standard Units>  (578) 
nM

>  <Standard Value>  (578) 
12.4

>  <Assay ChEMBL ID>  (578) 
CHEMBL3887076

>  <Assay Description>  (578) 
ELISA Assay: An enzyme-linked immunosorbant assay (ELISA) was used to assess TrkA kinase activity in the presence of inhibitors. Immulon 4HBX 384-well microtiter plates (Thermo part #8755) were coated with a 0.025 mg/mL solution of poly (Glu, Ala, Tyr; 6:3:1; Sigma P3899). Various concentrations of test compound, 2.5 nM TrkA (Invitrogen Corp., histidine-tagged recombinant human TrkA, cytoplasmic domain), and 500 uM ATP were incubated for 25 minutes at ambient temperature in the coated plates while shaking. The assay buffer consisted of 25 mM MOPS pH 7.5, 0.005% (v/v) Triton X-100 and 5 mM MgCl2. The reaction mixture was removed from the plate by washing with PBS containing 0.1% (v/v) Tween 20. The phosphorylated reaction product was detected using 0.2 ug/mL of a phosphotyrosine specific monoclonal antibody (clone PY20) conjugated to horseradish peroxidase in conjunction with the TMB Peroxidase Substrate System (KPL).

>  <BAO Format ID>  (578) 
BAO_0000357

>  <BAO Label>  (578) 
single protein format

>  <Assay Organism>  (578) 
None

>  <Target ChEMBL ID>  (578) 
CHEMBL2815

>  <Target Name>  (578) 
Nerve growth factor receptor Trk-A

>  <Target Organism>  (578) 
Homo sapiens

>  <Target Type>  (578) 
SINGLE PROTEIN

>  <Document ChEMBL ID>  (578) 
CHEMBL3886151

>  <Source Description>  (578) 
BindingDB Database

>  <Document Journal>  (578) 
nan

>  <Document Year>  (578) 
2014.0

>  <Active>  (578) 
1.0

>  <bits>  (578) 
<rdkit.DataStructs.cDataStructs.ExplicitBitVect object at 0x00000159F5473CA0>

>  <Group>  (578) 
G2

$$$$

     RDKit          2D

 36 40  0  0  0  0  0  0  0  0999 V2000
   -2.1766   -4.6157    0.0000 C   0  0  0  0  0  0  0  0  0  0  0  0
   -2.6401   -3.1891    0.0000 C   0  0  0  0  0  0  0  0  0  0  0  0
   -3.1036   -1.7626    0.0000 C   0  0  0  0  0  0  0  0  0  0  0  0
   -4.0667   -3.6527    0.0000 C   0  0  0  0  0  0  0  0  0  0  0  0
   -5.1814   -2.6490    0.0000 O   0  0  0  0  0  0  0  0  0  0  0  0
   -1.2135   -2.7256    0.0000 N   0  0  0  0  0  0  0  0  0  0  0  0
   -0.0000   -3.6073    0.0000 C   0  0  0  0  0  0  0  0  0  0  0  0
    1.2135   -2.7256    0.0000 C   0  0  0  0  0  0  0  0  0  0  0  0
    2.6401   -3.1891    0.0000 C   0  0  0  0  0  0  0  0  0  0  0  0
    3.7548   -2.1855    0.0000 O   0  0  0  0  0  0  0  0  0  0  0  0
    2.9520   -4.6564    0.0000 C   0  0  0  0  0  0  0  0  0  0  0  0
    1.8373   -5.6601    0.0000 C   0  0  0  0  0  0  0  0  0  0  0  0
    2.1491   -7.1273    0.0000 N   0  0  0  0  0  0  0  0  0  0  0  0
    3.5757   -7.5908    0.0000 C   0  0  0  0  0  0  0  0  0  0  0  0
    4.6904   -6.5871    0.0000 C   0  0  0  0  0  0  0  0  0  0  0  0
    6.1170   -7.0506    0.0000 N   0  0  0  0  0  0  0  0  0  0  0  0
    6.4289   -8.5179    0.0000 C   0  0  0  0  0  0  0  0  0  0  0  0
    5.3142   -9.5216    0.0000 O   0  0  0  0  0  0  0  0  0  0  0  0
    7.8555   -8.9814    0.0000 C   0  0  0  0  0  0  0  0  0  0  0  0
    8.1673  -10.4486    0.0000 C   0  0  0  0  0  0  0  0  0  0  0  0
    7.1636  -11.5633    0.0000 N   0  0  0  0  0  0  0  0  0  0  0  0
    7.9136  -12.8624    0.0000 C   0  0  0  0  0  0  0  0  0  0  0  0
    7.4501  -14.2890    0.0000 C   0  0  0  0  0  0  0  0  0  0  0  0
    8.4538  -15.4037    0.0000 C   0  0  0  0  0  0  0  0  0  0  0  0
    9.9210  -15.0918    0.0000 C   0  0  0  0  0  0  0  0  0  0  0  0
   10.3846  -13.6652    0.0000 C   0  0  0  0  0  0  0  0  0  0  0  0
    9.3809  -12.5505    0.0000 C   0  0  0  0  0  0  0  0  0  0  0  0
    9.5377  -11.0587    0.0000 N   0  0  0  0  0  0  0  0  0  0  0  0
    4.3786   -5.1199    0.0000 C   0  0  0  0  0  0  0  0  0  0  0  0
    0.7500   -1.2990    0.0000 C   0  0  0  0  0  0  0  0  0  0  0  0
    1.5000    0.0000    0.0000 C   0  0  0  0  0  0  0  0  0  0  0  0
    0.7500    1.2990    0.0000 N   0  0  0  0  0  0  0  0  0  0  0  0
   -0.7500    1.2990    0.0000 C   0  0  0  0  0  0  0  0  0  0  0  0
   -1.5000    2.5981    0.0000 N   0  0  0  0  0  0  0  0  0  0  0  0
   -1.5000    0.0000    0.0000 N   0  0  0  0  0  0  0  0  0  0  0  0
   -0.7500   -1.2990    0.0000 C   0  0  0  0  0  0  0  0  0  0  0  0
  1  2  1  0
  2  3  1  0
  2  4  1  0
  4  5  1  0
  2  6  1  0
  6  7  1  0
  7  8  2  0
  8  9  1  0
  9 10  2  0
  9 11  1  0
 11 12  2  0
 12 13  1  0
 13 14  2  0
 14 15  1  0
 15 16  1  0
 16 17  1  0
 17 18  2  0
 17 19  1  0
 19 20  1  0
 20 21  2  0
 21 22  1  0
 22 23  2  0
 23 24  1  0
 24 25  2  0
 25 26  1  0
 26 27  2  0
 27 28  1  0
 15 29  2  0
  8 30  1  0
 30 31  2  0
 31 32  1  0
 32 33  2  0
 33 34  1  0
 33 35  1  0
 35 36  2  0
 36  6  1  0
 29 11  1  0
 36 30  1  0
 28 20  1  0
 27 22  1  0
M  END
>  <Compound_ID>  (579) 
CHEMBL3671432

>  <Molecule Name>  (579) 
nan

>  <Molecular Weight>  (579) 
484.52

>  <AlogP>  (579) 
2.42

>  <Smiles>  (579) 
CC(C)(CO)n1cc(C(=O)c2cncc(NC(=O)Cc3nc4ccccc4[nH]3)c2)c2cnc(N)nc21

>  <Standard Type>  (579) 
IC50

>  <Standard Relation>  (579) 
'='

>  <Standard Units>  (579) 
nM

>  <Standard Value>  (579) 
5.56

>  <Assay ChEMBL ID>  (579) 
CHEMBL3887033

>  <Assay Description>  (579) 
Enzyme Assay: Isolated TRK Enzyme assays use the HTRF KinEASE-TK kit (Cisbio Cat# 62TK0PEJ) with recombinant His-tagged cytoplasmic domains of each TRK receptor sourced from Invitrogen (see table below). This activity-assay measures the phosphorylation of tyrosine residues within a substrate from the HTRF kit which has been validated by Cisbio for a variety of tyrosine kinases including the TRK receptors. Assay details: Target:TRKA; Invitrogen Cat# PV3144; Amino acids:aa 441-796; FAC enzyme:4nM; FAC ATP:40uM; Assay Reaction Time:35min.

>  <BAO Format ID>  (579) 
BAO_0000357

>  <BAO Label>  (579) 
single protein format

>  <Assay Organism>  (579) 
None

>  <Target ChEMBL ID>  (579) 
CHEMBL2815

>  <Target Name>  (579) 
Nerve growth factor receptor Trk-A

>  <Target Organism>  (579) 
Homo sapiens

>  <Target Type>  (579) 
SINGLE PROTEIN

>  <Document ChEMBL ID>  (579) 
CHEMBL3639348

>  <Source Description>  (579) 
BindingDB Database

>  <Document Journal>  (579) 
nan

>  <Document Year>  (579) 
2014.0

>  <Active>  (579) 
1.0

>  <bits>  (579) 
<rdkit.DataStructs.cDataStructs.ExplicitBitVect object at 0x00000159F5471380>

>  <Group>  (579) 
G2

$$$$

     RDKit          2D

 31 35  0  0  0  0  0  0  0  0999 V2000
    5.9262   -3.3786    0.0000 C   0  0  0  0  0  0  0  0  0  0  0  0
    5.4627   -1.9520    0.0000 C   0  0  0  0  0  0  0  0  0  0  0  0
    6.4664   -0.8373    0.0000 N   0  0  0  0  0  0  0  0  0  0  0  0
    6.0029    0.5893    0.0000 C   0  0  0  0  0  0  0  0  0  0  0  0
    4.5356    0.9012    0.0000 C   0  0  0  0  0  0  0  0  0  0  0  0
    4.0721    2.3277    0.0000 F   0  0  0  0  0  0  0  0  0  0  0  0
    3.5320   -0.2136    0.0000 C   0  0  0  0  0  0  0  0  0  0  0  0
    3.9955   -1.6402    0.0000 C   0  0  0  0  0  0  0  0  0  0  0  0
    2.9918   -2.7549    0.0000 C   0  0  0  0  0  0  0  0  0  0  0  0
    3.3037   -4.2221    0.0000 C   0  0  0  0  0  0  0  0  0  0  0  0
    2.0046   -4.9721    0.0000 C   0  0  0  0  0  0  0  0  0  0  0  0
    0.8899   -3.9684    0.0000 C   0  0  0  0  0  0  0  0  0  0  0  0
    1.5000   -2.5981    0.0000 N   0  0  0  0  0  0  0  0  0  0  0  0
    0.7500   -1.2990    0.0000 C   0  0  0  0  0  0  0  0  0  0  0  0
    1.5000    0.0000    0.0000 C   0  0  0  0  0  0  0  0  0  0  0  0
    0.7500    1.2990    0.0000 C   0  0  0  0  0  0  0  0  0  0  0  0
   -0.7500    1.2990    0.0000 N   0  0  0  0  0  0  0  0  0  0  0  0
   -1.7537    2.4138    0.0000 N   0  0  0  0  0  0  0  0  0  0  0  0
   -3.1240    1.8037    0.0000 C   0  0  0  0  0  0  0  0  0  0  0  0
   -2.9672    0.3119    0.0000 C   0  0  0  0  0  0  0  0  0  0  0  0
   -4.0819   -0.6918    0.0000 C   0  0  0  0  0  0  0  0  0  0  0  0
   -3.7701   -2.1590    0.0000 O   0  0  0  0  0  0  0  0  0  0  0  0
   -5.5085   -0.2283    0.0000 N   0  0  0  0  0  0  0  0  0  0  0  0
   -6.6232   -1.2320    0.0000 C   0  0  0  0  0  0  0  0  0  0  0  0
   -6.4664   -2.7238    0.0000 C   0  0  0  0  0  0  0  0  0  0  0  0
   -7.8368   -3.3339    0.0000 C   0  0  0  0  0  0  0  0  0  0  0  0
   -8.8405   -2.2192    0.0000 C   0  0  0  0  0  0  0  0  0  0  0  0
   -8.0905   -0.9201    0.0000 C   0  0  0  0  0  0  0  0  0  0  0  0
   -8.7006    0.4502    0.0000 O   0  0  0  0  0  0  0  0  0  0  0  0
   -1.5000    0.0000    0.0000 C   0  0  0  0  0  0  0  0  0  0  0  0
   -0.7500   -1.2990    0.0000 N   0  0  0  0  0  0  0  0  0  0  0  0
  1  2  1  0
  2  3  2  0
  3  4  1  0
  4  5  2  0
  5  6  1  0
  5  7  1  0
  7  8  2  0
  8  9  1  0
  9 10  1  0
 10 11  1  0
 11 12  1  0
 12 13  1  0
 13 14  1  0
 14 15  1  0
 15 16  2  0
 16 17  1  0
 17 18  1  0
 18 19  2  0
 19 20  1  0
 20 21  1  0
 21 22  2  0
 21 23  1  0
 24 23  1  6
 24 25  1  0
 25 26  1  0
 26 27  1  0
 27 28  1  0
 28 29  1  1
 20 30  2  0
 30 31  1  0
  8  2  1  0
 13  9  1  0
 31 14  2  0
 30 17  1  0
 28 24  1  0
M  END
>  <Compound_ID>  (580) 
CHEMBL3676064

>  <Molecule Name>  (580) 
nan

>  <Molecular Weight>  (580) 
424.48

>  <AlogP>  (580) 
2.56

>  <Smiles>  (580) 
Cc1ncc(F)cc1C1CCCN1c1ccn2ncc(C(=O)N[C@@H]3CCC[C@H]3O)c2n1

>  <Standard Type>  (580) 
IC50

>  <Standard Relation>  (580) 
'='

>  <Standard Units>  (580) 
nM

>  <Standard Value>  (580) 
4.8

>  <Assay ChEMBL ID>  (580) 
CHEMBL3887070

>  <Assay Description>  (580) 
ELISA Assay: An enzyme-linked immunosorbant assay (ELISA) was used to assess TrkA kinase activity in the presence of inhibitors. Immulon 4HBX 384-well microtiter plates (Thermo part #8755) were coated with a 0.025 mg/mL solution of poly (Glu, Ala, Tyr; 6:3:1; Sigma P3899). Various concentrations of test compound, 2.5 nM TrkA (Invitrogen Corp., histidine-tagged recombinant human TrkA, cytoplasmic domain), and 500 uM ATP were incubated for 25 minutes at ambient temperature in the coated plates while shaking The assay buffer consisted of 25 mM MOPS pH 7.5, 0.005% (v/v) Triton X-100 and 5 mM MgCl2. The reaction mixture was removed from the plate by washing with PBS containing 0.1% (v/v) Tween 20. The phosphorylated reaction product was detected using 0.2 ug/mL of a phosphotyrosine specific monoclonal antibody (clone PY20) conjugated to horseradish peroxidase in conjunction with the TMB Peroxidase Substrate System (KPL).

>  <BAO Format ID>  (580) 
BAO_0000357

>  <BAO Label>  (580) 
single protein format

>  <Assay Organism>  (580) 
None

>  <Target ChEMBL ID>  (580) 
CHEMBL2815

>  <Target Name>  (580) 
Nerve growth factor receptor Trk-A

>  <Target Organism>  (580) 
Homo sapiens

>  <Target Type>  (580) 
SINGLE PROTEIN

>  <Document ChEMBL ID>  (580) 
CHEMBL3638907

>  <Source Description>  (580) 
BindingDB Database

>  <Document Journal>  (580) 
nan

>  <Document Year>  (580) 
2014.0

>  <Active>  (580) 
1.0

>  <bits>  (580) 
<rdkit.DataStructs.cDataStructs.ExplicitBitVect object at 0x00000159F5471150>

>  <Group>  (580) 
G2

$$$$

     RDKit          2D

 37 40  0  0  0  0  0  0  0  0999 V2000
    7.3934   -3.6905    0.0000 C   0  0  0  0  0  0  0  0  0  0  0  0
    5.9262   -3.3786    0.0000 O   0  0  0  0  0  0  0  0  0  0  0  0
    5.4627   -1.9520    0.0000 C   0  0  0  0  0  0  0  0  0  0  0  0
    6.4664   -0.8373    0.0000 N   0  0  0  0  0  0  0  0  0  0  0  0
    6.0029    0.5893    0.0000 C   0  0  0  0  0  0  0  0  0  0  0  0
    4.5356    0.9012    0.0000 C   0  0  0  0  0  0  0  0  0  0  0  0
    4.0721    2.3277    0.0000 F   0  0  0  0  0  0  0  0  0  0  0  0
    3.5320   -0.2136    0.0000 C   0  0  0  0  0  0  0  0  0  0  0  0
    3.9955   -1.6402    0.0000 C   0  0  0  0  0  0  0  0  0  0  0  0
    2.9918   -2.7549    0.0000 C   0  0  0  0  0  0  0  0  0  0  0  0
    3.3037   -4.2221    0.0000 C   0  0  0  0  0  0  0  0  0  0  0  0
    2.0046   -4.9721    0.0000 C   0  0  0  0  0  0  0  0  0  0  0  0
    0.8899   -3.9684    0.0000 C   0  0  0  0  0  0  0  0  0  0  0  0
    1.5000   -2.5981    0.0000 N   0  0  0  0  0  0  0  0  0  0  0  0
    0.7500   -1.2990    0.0000 C   0  0  0  0  0  0  0  0  0  0  0  0
    1.5000    0.0000    0.0000 C   0  0  0  0  0  0  0  0  0  0  0  0
    0.7500    1.2990    0.0000 C   0  0  0  0  0  0  0  0  0  0  0  0
   -0.7500    1.2990    0.0000 N   0  0  0  0  0  0  0  0  0  0  0  0
   -1.7537    2.4138    0.0000 N   0  0  0  0  0  0  0  0  0  0  0  0
   -3.1240    1.8037    0.0000 C   0  0  0  0  0  0  0  0  0  0  0  0
   -2.9672    0.3119    0.0000 C   0  0  0  0  0  0  0  0  0  0  0  0
   -4.0819   -0.6918    0.0000 C   0  0  0  0  0  0  0  0  0  0  0  0
   -3.7701   -2.1590    0.0000 O   0  0  0  0  0  0  0  0  0  0  0  0
   -5.5085   -0.2283    0.0000 N   0  0  0  0  0  0  0  0  0  0  0  0
   -6.6232   -1.2320    0.0000 C   0  0  0  0  0  0  0  0  0  0  0  0
   -8.0498   -0.7685    0.0000 C   0  0  0  0  0  0  0  0  0  0  0  0
   -9.1645   -1.7722    0.0000 C   0  0  0  0  0  0  0  0  0  0  0  0
  -10.5911   -1.3086    0.0000 N   0  0  0  0  0  0  0  0  0  0  0  0
  -11.7058   -2.3123    0.0000 C   0  0  0  0  0  0  0  0  0  0  0  0
  -11.3940   -3.7796    0.0000 O   0  0  0  0  0  0  0  0  0  0  0  0
  -13.1324   -1.8488    0.0000 O   0  0  0  0  0  0  0  0  0  0  0  0
  -14.2471   -2.8525    0.0000 C   0  0  0  0  0  0  0  0  0  0  0  0
  -15.2508   -1.7378    0.0000 C   0  0  0  0  0  0  0  0  0  0  0  0
  -13.2435   -3.9672    0.0000 C   0  0  0  0  0  0  0  0  0  0  0  0
  -15.3619   -3.8562    0.0000 C   0  0  0  0  0  0  0  0  0  0  0  0
   -1.5000    0.0000    0.0000 C   0  0  0  0  0  0  0  0  0  0  0  0
   -0.7500   -1.2990    0.0000 N   0  0  0  0  0  0  0  0  0  0  0  0
  1  2  1  0
  2  3  1  0
  3  4  2  0
  4  5  1  0
  5  6  2  0
  6  7  1  0
  6  8  1  0
  8  9  2  0
 10  9  1  1
 10 11  1  0
 11 12  1  0
 12 13  1  0
 13 14  1  0
 14 15  1  0
 15 16  1  0
 16 17  2  0
 17 18  1  0
 18 19  1  0
 19 20  2  0
 20 21  1  0
 21 22  1  0
 22 23  2  0
 22 24  1  0
 24 25  1  0
 25 26  1  0
 26 27  1  0
 27 28  1  0
 28 29  1  0
 29 30  2  0
 29 31  1  0
 31 32  1  0
 32 33  1  0
 32 34  1  0
 32 35  1  0
 21 36  2  0
 36 37  1  0
  9  3  1  0
 14 10  1  0
 37 15  2  0
 36 18  1  0
M  END
>  <Compound_ID>  (581) 
CHEMBL3676015

>  <Molecule Name>  (581) 
nan

>  <Molecular Weight>  (581) 
513.57

>  <AlogP>  (581) 
3.26

>  <Smiles>  (581) 
COc1ncc(F)cc1[C@H]1CCCN1c1ccn2ncc(C(=O)NCCCNC(=O)OC(C)(C)C)c2n1

>  <Standard Type>  (581) 
IC50

>  <Standard Relation>  (581) 
'='

>  <Standard Units>  (581) 
nM

>  <Standard Value>  (581) 
9.4

>  <Assay ChEMBL ID>  (581) 
CHEMBL3887070

>  <Assay Description>  (581) 
ELISA Assay: An enzyme-linked immunosorbant assay (ELISA) was used to assess TrkA kinase activity in the presence of inhibitors. Immulon 4HBX 384-well microtiter plates (Thermo part #8755) were coated with a 0.025 mg/mL solution of poly (Glu, Ala, Tyr; 6:3:1; Sigma P3899). Various concentrations of test compound, 2.5 nM TrkA (Invitrogen Corp., histidine-tagged recombinant human TrkA, cytoplasmic domain), and 500 uM ATP were incubated for 25 minutes at ambient temperature in the coated plates while shaking The assay buffer consisted of 25 mM MOPS pH 7.5, 0.005% (v/v) Triton X-100 and 5 mM MgCl2. The reaction mixture was removed from the plate by washing with PBS containing 0.1% (v/v) Tween 20. The phosphorylated reaction product was detected using 0.2 ug/mL of a phosphotyrosine specific monoclonal antibody (clone PY20) conjugated to horseradish peroxidase in conjunction with the TMB Peroxidase Substrate System (KPL).

>  <BAO Format ID>  (581) 
BAO_0000357

>  <BAO Label>  (581) 
single protein format

>  <Assay Organism>  (581) 
None

>  <Target ChEMBL ID>  (581) 
CHEMBL2815

>  <Target Name>  (581) 
Nerve growth factor receptor Trk-A

>  <Target Organism>  (581) 
Homo sapiens

>  <Target Type>  (581) 
SINGLE PROTEIN

>  <Document ChEMBL ID>  (581) 
CHEMBL3638907

>  <Source Description>  (581) 
BindingDB Database

>  <Document Journal>  (581) 
nan

>  <Document Year>  (581) 
2014.0

>  <Active>  (581) 
1.0

>  <bits>  (581) 
<rdkit.DataStructs.cDataStructs.ExplicitBitVect object at 0x00000159F7933D10>

>  <Group>  (581) 
G2

$$$$

     RDKit          2D

 34 38  0  0  0  0  0  0  0  0999 V2000
   -1.8373   -5.6601    0.0000 O   0  0  0  0  0  0  0  0  0  0  0  0
   -2.9520   -4.6564    0.0000 C   0  0  0  0  0  0  0  0  0  0  0  0
   -2.6401   -3.1891    0.0000 N   0  0  0  0  0  0  0  0  0  0  0  0
   -1.2135   -2.7256    0.0000 C   0  0  0  0  0  0  0  0  0  0  0  0
   -0.0000   -3.6073    0.0000 C   0  0  0  0  0  0  0  0  0  0  0  0
    1.2135   -2.7256    0.0000 N   0  0  0  0  0  0  0  0  0  0  0  0
    0.7500   -1.2990    0.0000 N   0  0  0  0  0  0  0  0  0  0  0  0
    1.5000    0.0000    0.0000 C   0  0  0  0  0  0  0  0  0  0  0  0
    0.7500    1.2990    0.0000 C   0  0  0  0  0  0  0  0  0  0  0  0
   -0.7500    1.2990    0.0000 C   0  0  0  0  0  0  0  0  0  0  0  0
   -1.5000    2.5981    0.0000 N   0  0  0  0  0  0  0  0  0  0  0  0
   -2.9918    2.7549    0.0000 C   0  0  0  0  0  0  0  0  0  0  0  0
   -3.3037    4.2221    0.0000 C   0  0  0  0  0  0  0  0  0  0  0  0
   -2.0046    4.9721    0.0000 C   0  0  0  0  0  0  0  0  0  0  0  0
   -0.8899    3.9684    0.0000 C   0  0  0  0  0  0  0  0  0  0  0  0
    0.5773    4.2803    0.0000 C   0  0  0  0  0  0  0  0  0  0  0  0
    1.5810    3.1655    0.0000 C   0  0  0  0  0  0  0  0  0  0  0  0
    3.0482    3.4774    0.0000 C   0  0  0  0  0  0  0  0  0  0  0  0
    4.0519    2.3627    0.0000 F   0  0  0  0  0  0  0  0  0  0  0  0
    3.5118    4.9040    0.0000 C   0  0  0  0  0  0  0  0  0  0  0  0
    2.5081    6.0187    0.0000 C   0  0  0  0  0  0  0  0  0  0  0  0
    1.0409    5.7068    0.0000 C   0  0  0  0  0  0  0  0  0  0  0  0
    0.0372    6.8216    0.0000 C   0  0  0  0  0  0  0  0  0  0  0  0
   -0.9665    7.9363    0.0000 F   0  0  0  0  0  0  0  0  0  0  0  0
    1.1519    7.8253    0.0000 F   0  0  0  0  0  0  0  0  0  0  0  0
   -1.0776    5.8179    0.0000 F   0  0  0  0  0  0  0  0  0  0  0  0
   -1.5000    0.0000    0.0000 N   0  0  0  0  0  0  0  0  0  0  0  0
   -0.7500   -1.2990    0.0000 C   0  0  0  0  0  0  0  0  0  0  0  0
   -4.3786   -5.1199    0.0000 N   0  0  0  0  0  0  0  0  0  0  0  0
   -4.8421   -6.5465    0.0000 C   0  0  0  0  0  0  0  0  0  0  0  0
   -6.3421   -6.5465    0.0000 C   0  0  0  0  0  0  0  0  0  0  0  0
   -6.8056   -5.1199    0.0000 C   0  0  0  0  0  0  0  0  0  0  0  0
   -8.2322   -4.6564    0.0000 O   0  0  0  0  0  0  0  0  0  0  0  0
   -5.5921   -4.2382    0.0000 C   0  0  0  0  0  0  0  0  0  0  0  0
  1  2  2  0
  2  3  1  0
  3  4  1  0
  4  5  1  0
  5  6  2  0
  6  7  1  0
  7  8  1  0
  8  9  2  0
  9 10  1  0
 10 11  1  0
 11 12  1  0
 12 13  1  0
 13 14  1  0
 14 15  1  0
 15 16  1  6
 16 17  2  0
 17 18  1  0
 18 19  1  0
 18 20  2  0
 20 21  1  0
 21 22  2  0
 22 23  1  0
 23 24  1  0
 23 25  1  0
 23 26  1  0
 10 27  2  0
 27 28  1  0
  2 29  1  0
 29 30  1  0
 30 31  1  0
 31 32  1  0
 32 33  1  6
 32 34  1  0
 28  4  2  0
 34 29  1  0
 28  7  1  0
 15 11  1  0
 22 16  1  0
M  END
>  <Compound_ID>  (582) 
CHEMBL3985415

>  <Molecule Name>  (582) 
nan

>  <Molecular Weight>  (582) 
478.45

>  <AlogP>  (582) 
3.83

>  <Smiles>  (582) 
O=C(Nc1cnn2ccc(N3CCC[C@@H]3c3cc(F)ccc3C(F)(F)F)nc12)N1CC[C@H](O)C1

>  <Standard Type>  (582) 
IC50

>  <Standard Relation>  (582) 
'='

>  <Standard Units>  (582) 
nM

>  <Standard Value>  (582) 
3.2

>  <Assay ChEMBL ID>  (582) 
CHEMBL3887076

>  <Assay Description>  (582) 
ELISA Assay: An enzyme-linked immunosorbant assay (ELISA) was used to assess TrkA kinase activity in the presence of inhibitors. Immulon 4HBX 384-well microtiter plates (Thermo part #8755) were coated with a 0.025 mg/mL solution of poly (Glu, Ala, Tyr; 6:3:1; Sigma P3899). Various concentrations of test compound, 2.5 nM TrkA (Invitrogen Corp., histidine-tagged recombinant human TrkA, cytoplasmic domain), and 500 uM ATP were incubated for 25 minutes at ambient temperature in the coated plates while shaking. The assay buffer consisted of 25 mM MOPS pH 7.5, 0.005% (v/v) Triton X-100 and 5 mM MgCl2. The reaction mixture was removed from the plate by washing with PBS containing 0.1% (v/v) Tween 20. The phosphorylated reaction product was detected using 0.2 ug/mL of a phosphotyrosine specific monoclonal antibody (clone PY20) conjugated to horseradish peroxidase in conjunction with the TMB Peroxidase Substrate System (KPL).

>  <BAO Format ID>  (582) 
BAO_0000357

>  <BAO Label>  (582) 
single protein format

>  <Assay Organism>  (582) 
None

>  <Target ChEMBL ID>  (582) 
CHEMBL2815

>  <Target Name>  (582) 
Nerve growth factor receptor Trk-A

>  <Target Organism>  (582) 
Homo sapiens

>  <Target Type>  (582) 
SINGLE PROTEIN

>  <Document ChEMBL ID>  (582) 
CHEMBL3886151

>  <Source Description>  (582) 
BindingDB Database

>  <Document Journal>  (582) 
nan

>  <Document Year>  (582) 
2014.0

>  <Active>  (582) 
1.0

>  <bits>  (582) 
<rdkit.DataStructs.cDataStructs.ExplicitBitVect object at 0x00000159F7933A00>

>  <Group>  (582) 
G2

$$$$

     RDKit          2D

 32 36  0  0  0  0  0  0  0  0999 V2000
   -8.6583   -6.5105    0.0000 C   0  0  0  0  0  0  0  0  0  0  0  0
   -7.2317   -6.0469    0.0000 N   0  0  0  0  0  0  0  0  0  0  0  0
   -6.9199   -4.5797    0.0000 C   0  0  0  0  0  0  0  0  0  0  0  0
   -5.4933   -4.1162    0.0000 C   0  0  0  0  0  0  0  0  0  0  0  0
   -4.3786   -5.1199    0.0000 N   0  0  0  0  0  0  0  0  0  0  0  0
   -2.9520   -4.6564    0.0000 C   0  0  0  0  0  0  0  0  0  0  0  0
   -1.8373   -5.6601    0.0000 O   0  0  0  0  0  0  0  0  0  0  0  0
   -2.6401   -3.1891    0.0000 N   0  0  0  0  0  0  0  0  0  0  0  0
   -1.2135   -2.7256    0.0000 C   0  0  0  0  0  0  0  0  0  0  0  0
   -0.0000   -3.6073    0.0000 C   0  0  0  0  0  0  0  0  0  0  0  0
    1.2135   -2.7256    0.0000 N   0  0  0  0  0  0  0  0  0  0  0  0
    0.7500   -1.2990    0.0000 C   0  0  0  0  0  0  0  0  0  0  0  0
    1.5000    0.0000    0.0000 C   0  0  0  0  0  0  0  0  0  0  0  0
    0.7500    1.2990    0.0000 C   0  0  0  0  0  0  0  0  0  0  0  0
   -0.7500    1.2990    0.0000 C   0  0  0  0  0  0  0  0  0  0  0  0
   -1.5000    2.5981    0.0000 N   0  0  0  0  0  0  0  0  0  0  0  0
   -2.9918    2.7549    0.0000 C   0  0  0  0  0  0  0  0  0  0  0  0
   -3.3037    4.2221    0.0000 C   0  0  0  0  0  0  0  0  0  0  0  0
   -2.0046    4.9721    0.0000 C   0  0  0  0  0  0  0  0  0  0  0  0
   -0.8899    3.9684    0.0000 C   0  0  0  0  0  0  0  0  0  0  0  0
    0.5773    4.2803    0.0000 C   0  0  0  0  0  0  0  0  0  0  0  0
    1.5810    3.1655    0.0000 C   0  0  0  0  0  0  0  0  0  0  0  0
    3.0482    3.4774    0.0000 C   0  0  0  0  0  0  0  0  0  0  0  0
    4.0519    2.3627    0.0000 F   0  0  0  0  0  0  0  0  0  0  0  0
    3.5118    4.9040    0.0000 C   0  0  0  0  0  0  0  0  0  0  0  0
    2.5081    6.0187    0.0000 C   0  0  0  0  0  0  0  0  0  0  0  0
    1.0409    5.7068    0.0000 C   0  0  0  0  0  0  0  0  0  0  0  0
    0.0372    6.8216    0.0000 F   0  0  0  0  0  0  0  0  0  0  0  0
   -1.5000    0.0000    0.0000 N   0  0  0  0  0  0  0  0  0  0  0  0
   -0.7500   -1.2990    0.0000 N   0  0  0  0  0  0  0  0  0  0  0  0
   -4.6904   -6.5871    0.0000 C   0  0  0  0  0  0  0  0  0  0  0  0
   -6.1170   -7.0506    0.0000 C   0  0  0  0  0  0  0  0  0  0  0  0
  1  2  1  0
  2  3  1  0
  3  4  1  0
  4  5  1  0
  5  6  1  0
  6  7  2  0
  6  8  1  0
  8  9  1  0
  9 10  2  0
 10 11  1  0
 11 12  2  0
 12 13  1  0
 13 14  2  0
 14 15  1  0
 15 16  1  0
 16 17  1  0
 17 18  1  0
 18 19  1  0
 19 20  1  0
 20 21  1  6
 21 22  2  0
 22 23  1  0
 23 24  1  0
 23 25  2  0
 25 26  1  0
 26 27  2  0
 27 28  1  0
 15 29  2  0
 29 30  1  0
  5 31  1  0
 31 32  1  0
 32  2  1  0
 30  9  1  0
 30 12  1  0
 20 16  1  0
 27 21  1  0
M  END
>  <Compound_ID>  (583) 
CHEMBL4107981

>  <Molecule Name>  (583) 
nan

>  <Molecular Weight>  (583) 
441.49

>  <AlogP>  (583) 
3.13

>  <Smiles>  (583) 
CN1CCN(C(=O)Nc2cnc3ccc(N4CCC[C@@H]4c4cc(F)ccc4F)nn23)CC1

>  <Standard Type>  (583) 
IC50

>  <Standard Relation>  (583) 
'='

>  <Standard Units>  (583) 
nM

>  <Standard Value>  (583) 
53.2

>  <Assay ChEMBL ID>  (583) 
CHEMBL3887826

>  <Assay Description>  (583) 
ELISA Assay: An enzyme-linked immunosorbant assay (ELISA) was used to assess TrkA kinase activity in the presence of inhibitors. Immulon 4HBX 384-well microtiter plates (Thermo part #8755) were coated with a 0.025 mg/mL solution of poly (Glu, Ala, Tyr; 6:3:1; Sigma P3899). Various concentrations of test compound, 2.5 nM TrkA (Invitrogen Corp., histidine-tagged recombinant human TrkA, cytoplasmic domain), and 500 uM ATP were incubated for 25 minutes at ambient temperature in the coated plates while shaking. The assay buffer consisted of 25 mM MOPS pH 7.5, 0.005% (v/v) Triton X-100 and 5 mM MgCl2. The reaction mixture was removed from the plate by washing with PBS containing 0.1% (v/v) Tween 20. The phosphorylated reaction product was detected using 0.2 ug/mL of a phosphotyrosine specific monoclonal antibody (clone PY20) conjugated to horseradish peroxidase in conjunction with the TMB Peroxidase Substrate System (KPL).

>  <BAO Format ID>  (583) 
BAO_0000357

>  <BAO Label>  (583) 
single protein format

>  <Assay Organism>  (583) 
None

>  <Target ChEMBL ID>  (583) 
CHEMBL2815

>  <Target Name>  (583) 
Nerve growth factor receptor Trk-A

>  <Target Organism>  (583) 
Homo sapiens

>  <Target Type>  (583) 
SINGLE PROTEIN

>  <Document ChEMBL ID>  (583) 
CHEMBL3886465

>  <Source Description>  (583) 
BindingDB Database

>  <Document Journal>  (583) 
nan

>  <Document Year>  (583) 
2016.0

>  <Active>  (583) 
1.0

>  <bits>  (583) 
<rdkit.DataStructs.cDataStructs.ExplicitBitVect object at 0x00000159F7933450>

>  <Group>  (583) 
G2

$$$$

     RDKit          2D

 35 38  0  0  0  0  0  0  0  0999 V2000
   -2.9520   -4.6564    0.0000 C   0  0  0  0  0  0  0  0  0  0  0  0
   -2.6401   -3.1891    0.0000 C   0  0  0  0  0  0  0  0  0  0  0  0
   -3.7548   -2.1855    0.0000 C   0  0  0  0  0  0  0  0  0  0  0  0
   -1.2135   -2.7256    0.0000 N   0  0  0  0  0  0  0  0  0  0  0  0
   -0.0000   -3.6073    0.0000 C   0  0  0  0  0  0  0  0  0  0  0  0
    1.2135   -2.7256    0.0000 C   0  0  0  0  0  0  0  0  0  0  0  0
    2.6401   -3.1891    0.0000 C   0  0  0  0  0  0  0  0  0  0  0  0
    3.7548   -2.1855    0.0000 O   0  0  0  0  0  0  0  0  0  0  0  0
    2.9520   -4.6564    0.0000 C   0  0  0  0  0  0  0  0  0  0  0  0
    1.8373   -5.6601    0.0000 C   0  0  0  0  0  0  0  0  0  0  0  0
    2.1491   -7.1273    0.0000 C   0  0  0  0  0  0  0  0  0  0  0  0
    3.5757   -7.5908    0.0000 N   0  0  0  0  0  0  0  0  0  0  0  0
    4.6904   -6.5871    0.0000 C   0  0  0  0  0  0  0  0  0  0  0  0
    6.1170   -7.0506    0.0000 N   0  0  0  0  0  0  0  0  0  0  0  0
    6.4289   -8.5179    0.0000 C   0  0  0  0  0  0  0  0  0  0  0  0
    5.3142   -9.5216    0.0000 O   0  0  0  0  0  0  0  0  0  0  0  0
    7.8555   -8.9814    0.0000 C   0  0  0  0  0  0  0  0  0  0  0  0
    8.1673  -10.4486    0.0000 C   0  0  0  0  0  0  0  0  0  0  0  0
    7.0526  -11.4523    0.0000 C   0  0  0  0  0  0  0  0  0  0  0  0
    7.3645  -12.9195    0.0000 C   0  0  0  0  0  0  0  0  0  0  0  0
    8.7911  -13.3831    0.0000 C   0  0  0  0  0  0  0  0  0  0  0  0
    9.9058  -12.3794    0.0000 C   0  0  0  0  0  0  0  0  0  0  0  0
    9.5939  -10.9121    0.0000 C   0  0  0  0  0  0  0  0  0  0  0  0
   10.7086   -9.9084    0.0000 O   0  0  0  0  0  0  0  0  0  0  0  0
   12.1352  -10.3720    0.0000 C   0  0  0  0  0  0  0  0  0  0  0  0
   13.5618  -10.8355    0.0000 F   0  0  0  0  0  0  0  0  0  0  0  0
   12.5987   -8.9454    0.0000 F   0  0  0  0  0  0  0  0  0  0  0  0
   11.6717  -11.7986    0.0000 F   0  0  0  0  0  0  0  0  0  0  0  0
    4.3786   -5.1199    0.0000 C   0  0  0  0  0  0  0  0  0  0  0  0
    0.7500   -1.2990    0.0000 C   0  0  0  0  0  0  0  0  0  0  0  0
    1.5000    0.0000    0.0000 C   0  0  0  0  0  0  0  0  0  0  0  0
    0.7500    1.2990    0.0000 N   0  0  0  0  0  0  0  0  0  0  0  0
   -0.7500    1.2990    0.0000 C   0  0  0  0  0  0  0  0  0  0  0  0
   -1.5000    0.0000    0.0000 C   0  0  0  0  0  0  0  0  0  0  0  0
   -0.7500   -1.2990    0.0000 C   0  0  0  0  0  0  0  0  0  0  0  0
  1  2  1  0
  2  3  1  0
  2  4  1  0
  4  5  1  0
  5  6  2  0
  6  7  1  0
  7  8  2  0
  7  9  1  0
  9 10  2  0
 10 11  1  0
 11 12  2  0
 12 13  1  0
 13 14  1  0
 14 15  1  0
 15 16  2  0
 15 17  1  0
 17 18  1  0
 18 19  2  0
 19 20  1  0
 20 21  2  0
 21 22  1  0
 22 23  2  0
 23 24  1  0
 24 25  1  0
 25 26  1  0
 25 27  1  0
 25 28  1  0
 13 29  2  0
  6 30  1  0
 30 31  2  0
 31 32  1  0
 32 33  2  0
 33 34  1  0
 34 35  2  0
 35  4  1  0
 29  9  1  0
 35 30  1  0
 23 18  1  0
M  END
>  <Compound_ID>  (584) 
CHEMBL3980891

>  <Molecule Name>  (584) 
nan

>  <Molecular Weight>  (584) 
482.46

>  <AlogP>  (584) 
5.32

>  <Smiles>  (584) 
CC(C)n1cc(C(=O)c2ccnc(NC(=O)Cc3ccccc3OC(F)(F)F)c2)c2cnccc21

>  <Standard Type>  (584) 
IC50

>  <Standard Relation>  (584) 
'='

>  <Standard Units>  (584) 
nM

>  <Standard Value>  (584) 
26.1

>  <Assay ChEMBL ID>  (584) 
CHEMBL3887111

>  <Assay Description>  (584) 
HTRF Assay: Isolated TRK Enzyme assays use the HTRF KinEASE-TK kit (Cisbio Cat#62TK0PEJ) with recombinant His-tagged cytoplasmic domains of each TRK receptor sourced from Invitrogen (see table below). This activity-assay measures the phosphorylation of tyrosine residues within a substrate from the HTRF kit which has been validated by Cisbio for a variety of tyrosine kinases including the TRK receptors.Assay Details: Invitrogen Amino FAC FAC Assay ReactionTarget Cat# acids enzyme ATP TimeTRKA PV3144 aa 441-4 nM 40 uM 35 min (NTRK1) 796 TRKB PV3616 aa 526-1 nM 1.4 uM 40 min (NTRK2) 838 TRKC PV3617 aa 510- 10 nM 15 uM 30 min (NTRK3) 8250.5 mM stock solutions of test compounds are prepared and serially diluted in 100% DMSO. A standard curve using the compound of Example 135 disclosed in WO2005/116035 of 150 uM is also prepared on each test plate. High percentage effect (HPE) is defined by 150 uM.

>  <BAO Format ID>  (584) 
BAO_0000357

>  <BAO Label>  (584) 
single protein format

>  <Assay Organism>  (584) 
None

>  <Target ChEMBL ID>  (584) 
CHEMBL2815

>  <Target Name>  (584) 
Nerve growth factor receptor Trk-A

>  <Target Organism>  (584) 
Homo sapiens

>  <Target Type>  (584) 
SINGLE PROTEIN

>  <Document ChEMBL ID>  (584) 
CHEMBL3886170

>  <Source Description>  (584) 
BindingDB Database

>  <Document Journal>  (584) 
nan

>  <Document Year>  (584) 
2015.0

>  <Active>  (584) 
1.0

>  <bits>  (584) 
<rdkit.DataStructs.cDataStructs.ExplicitBitVect object at 0x00000159F7932CE0>

>  <Group>  (584) 
G2

$$$$

     RDKit          2D

 30 34  0  0  0  0  0  0  0  0999 V2000
   -1.8373   -5.6601    0.0000 O   0  0  0  0  0  0  0  0  0  0  0  0
   -2.9520   -4.6564    0.0000 C   0  0  0  0  0  0  0  0  0  0  0  0
   -2.6401   -3.1891    0.0000 N   0  0  0  0  0  0  0  0  0  0  0  0
   -1.2135   -2.7256    0.0000 C   0  0  0  0  0  0  0  0  0  0  0  0
   -0.0000   -3.6073    0.0000 C   0  0  0  0  0  0  0  0  0  0  0  0
    1.2135   -2.7256    0.0000 N   0  0  0  0  0  0  0  0  0  0  0  0
    0.7500   -1.2990    0.0000 N   0  0  0  0  0  0  0  0  0  0  0  0
    1.5000    0.0000    0.0000 C   0  0  0  0  0  0  0  0  0  0  0  0
    0.7500    1.2990    0.0000 C   0  0  0  0  0  0  0  0  0  0  0  0
   -0.7500    1.2990    0.0000 C   0  0  0  0  0  0  0  0  0  0  0  0
   -1.5000    2.5981    0.0000 N   0  0  0  0  0  0  0  0  0  0  0  0
   -2.9918    2.7549    0.0000 C   0  0  0  0  0  0  0  0  0  0  0  0
   -3.3037    4.2221    0.0000 C   0  0  0  0  0  0  0  0  0  0  0  0
   -2.0046    4.9721    0.0000 C   0  0  0  0  0  0  0  0  0  0  0  0
   -0.8899    3.9684    0.0000 C   0  0  0  0  0  0  0  0  0  0  0  0
    0.5773    4.2803    0.0000 C   0  0  0  0  0  0  0  0  0  0  0  0
    1.5810    3.1655    0.0000 C   0  0  0  0  0  0  0  0  0  0  0  0
    3.0482    3.4774    0.0000 C   0  0  0  0  0  0  0  0  0  0  0  0
    4.0519    2.3627    0.0000 F   0  0  0  0  0  0  0  0  0  0  0  0
    3.5118    4.9040    0.0000 C   0  0  0  0  0  0  0  0  0  0  0  0
    2.5081    6.0187    0.0000 C   0  0  0  0  0  0  0  0  0  0  0  0
    1.0409    5.7068    0.0000 C   0  0  0  0  0  0  0  0  0  0  0  0
    0.0372    6.8216    0.0000 F   0  0  0  0  0  0  0  0  0  0  0  0
   -1.5000    0.0000    0.0000 N   0  0  0  0  0  0  0  0  0  0  0  0
   -0.7500   -1.2990    0.0000 C   0  0  0  0  0  0  0  0  0  0  0  0
   -4.3786   -5.1199    0.0000 C   0  0  0  0  0  0  0  0  0  0  0  0
   -5.7151   -4.4389    0.0000 C   0  0  0  0  0  0  0  0  0  0  0  0
   -6.3961   -5.7754    0.0000 C   0  0  0  0  0  0  0  0  0  0  0  0
   -7.8226   -6.2389    0.0000 O   0  0  0  0  0  0  0  0  0  0  0  0
   -5.0595   -6.4564    0.0000 C   0  0  0  0  0  0  0  0  0  0  0  0
  1  2  2  0
  2  3  1  0
  3  4  1  0
  4  5  1  0
  5  6  2  0
  6  7  1  0
  7  8  1  0
  8  9  2  0
  9 10  1  0
 10 11  1  0
 11 12  1  0
 12 13  1  0
 13 14  1  0
 14 15  1  0
 15 16  1  6
 16 17  2  0
 17 18  1  0
 18 19  1  0
 18 20  2  0
 20 21  1  0
 21 22  2  0
 22 23  1  0
 10 24  2  0
 24 25  1  0
  2 26  1  0
 26 27  1  0
 27 28  1  0
 28 29  1  0
 28 30  1  0
 25  4  2  0
 30 26  1  0
 25  7  1  0
 15 11  1  0
 22 16  1  0
M  END
>  <Compound_ID>  (585) 
CHEMBL4109295

>  <Molecule Name>  (585) 
nan

>  <Molecular Weight>  (585) 
413.43

>  <AlogP>  (585) 
3.06

>  <Smiles>  (585) 
O=C(Nc1cnn2ccc(N3CCC[C@@H]3c3cc(F)ccc3F)nc12)C1CC(O)C1

>  <Standard Type>  (585) 
IC50

>  <Standard Relation>  (585) 
'='

>  <Standard Units>  (585) 
nM

>  <Standard Value>  (585) 
27.4

>  <Assay ChEMBL ID>  (585) 
CHEMBL3887076

>  <Assay Description>  (585) 
ELISA Assay: An enzyme-linked immunosorbant assay (ELISA) was used to assess TrkA kinase activity in the presence of inhibitors. Immulon 4HBX 384-well microtiter plates (Thermo part #8755) were coated with a 0.025 mg/mL solution of poly (Glu, Ala, Tyr; 6:3:1; Sigma P3899). Various concentrations of test compound, 2.5 nM TrkA (Invitrogen Corp., histidine-tagged recombinant human TrkA, cytoplasmic domain), and 500 uM ATP were incubated for 25 minutes at ambient temperature in the coated plates while shaking. The assay buffer consisted of 25 mM MOPS pH 7.5, 0.005% (v/v) Triton X-100 and 5 mM MgCl2. The reaction mixture was removed from the plate by washing with PBS containing 0.1% (v/v) Tween 20. The phosphorylated reaction product was detected using 0.2 ug/mL of a phosphotyrosine specific monoclonal antibody (clone PY20) conjugated to horseradish peroxidase in conjunction with the TMB Peroxidase Substrate System (KPL).

>  <BAO Format ID>  (585) 
BAO_0000357

>  <BAO Label>  (585) 
single protein format

>  <Assay Organism>  (585) 
None

>  <Target ChEMBL ID>  (585) 
CHEMBL2815

>  <Target Name>  (585) 
Nerve growth factor receptor Trk-A

>  <Target Organism>  (585) 
Homo sapiens

>  <Target Type>  (585) 
SINGLE PROTEIN

>  <Document ChEMBL ID>  (585) 
CHEMBL3886151

>  <Source Description>  (585) 
BindingDB Database

>  <Document Journal>  (585) 
nan

>  <Document Year>  (585) 
2014.0

>  <Active>  (585) 
1.0

>  <bits>  (585) 
<rdkit.DataStructs.cDataStructs.ExplicitBitVect object at 0x00000159F7932260>

>  <Group>  (585) 
G2

$$$$

     RDKit          2D

 31 35  0  0  0  0  0  0  0  0999 V2000
   -3.7548   -2.1855    0.0000 O   0  0  0  0  0  0  0  0  0  0  0  0
   -2.6401   -3.1891    0.0000 C   0  0  0  0  0  0  0  0  0  0  0  0
   -2.9520   -4.6564    0.0000 N   0  0  0  0  0  0  0  0  0  0  0  0
   -4.3786   -5.1199    0.0000 C   0  0  0  0  0  0  0  0  0  0  0  0
   -4.8421   -6.5465    0.0000 C   0  0  0  0  0  0  0  0  0  0  0  0
   -6.3421   -6.5465    0.0000 C   0  0  0  0  0  0  0  0  0  0  0  0
   -6.8056   -5.1199    0.0000 C   0  0  0  0  0  0  0  0  0  0  0  0
   -8.2322   -4.6564    0.0000 O   0  0  0  0  0  0  0  0  0  0  0  0
   -5.5921   -4.2382    0.0000 C   0  0  0  0  0  0  0  0  0  0  0  0
   -1.2135   -2.7256    0.0000 C   0  0  0  0  0  0  0  0  0  0  0  0
   -0.0000   -3.6073    0.0000 C   0  0  0  0  0  0  0  0  0  0  0  0
    1.2135   -2.7256    0.0000 N   0  0  0  0  0  0  0  0  0  0  0  0
    0.7500   -1.2990    0.0000 N   0  0  0  0  0  0  0  0  0  0  0  0
    1.5000    0.0000    0.0000 C   0  0  0  0  0  0  0  0  0  0  0  0
    0.7500    1.2990    0.0000 C   0  0  0  0  0  0  0  0  0  0  0  0
   -0.7500    1.2990    0.0000 C   0  0  0  0  0  0  0  0  0  0  0  0
   -1.5000    2.5981    0.0000 N   0  0  0  0  0  0  0  0  0  0  0  0
   -2.9918    2.7549    0.0000 C   0  0  0  0  0  0  0  0  0  0  0  0
   -3.3037    4.2221    0.0000 C   0  0  0  0  0  0  0  0  0  0  0  0
   -2.0046    4.9721    0.0000 C   0  0  0  0  0  0  0  0  0  0  0  0
   -0.8899    3.9684    0.0000 C   0  0  0  0  0  0  0  0  0  0  0  0
    0.5773    4.2803    0.0000 C   0  0  0  0  0  0  0  0  0  0  0  0
    1.5810    3.1655    0.0000 C   0  0  0  0  0  0  0  0  0  0  0  0
    3.0482    3.4774    0.0000 C   0  0  0  0  0  0  0  0  0  0  0  0
    4.0519    2.3627    0.0000 F   0  0  0  0  0  0  0  0  0  0  0  0
    3.5118    4.9040    0.0000 C   0  0  0  0  0  0  0  0  0  0  0  0
    2.5081    6.0187    0.0000 C   0  0  0  0  0  0  0  0  0  0  0  0
    1.0409    5.7068    0.0000 C   0  0  0  0  0  0  0  0  0  0  0  0
    0.0372    6.8216    0.0000 F   0  0  0  0  0  0  0  0  0  0  0  0
   -1.5000    0.0000    0.0000 N   0  0  0  0  0  0  0  0  0  0  0  0
   -0.7500   -1.2990    0.0000 C   0  0  0  0  0  0  0  0  0  0  0  0
  1  2  2  0
  2  3  1  0
  4  3  1  1
  4  5  1  0
  5  6  1  0
  6  7  1  0
  7  8  1  6
  7  9  1  0
  2 10  1  0
 10 11  1  0
 11 12  2  0
 12 13  1  0
 13 14  1  0
 14 15  2  0
 15 16  1  0
 16 17  1  0
 17 18  1  0
 18 19  1  0
 19 20  1  0
 20 21  1  0
 21 22  1  6
 22 23  2  0
 23 24  1  0
 24 25  1  0
 24 26  2  0
 26 27  1  0
 27 28  2  0
 28 29  1  0
 16 30  2  0
 30 31  1  0
  9  4  1  0
 31 10  2  0
 31 13  1  0
 21 17  1  0
 28 22  1  0
M  END
>  <Compound_ID>  (586) 
CHEMBL3676038

>  <Molecule Name>  (586) 
nan

>  <Molecular Weight>  (586) 
427.46

>  <AlogP>  (586) 
2.99

>  <Smiles>  (586) 
O=C(N[C@H]1CC[C@H](O)C1)c1cnn2ccc(N3CCC[C@@H]3c3cc(F)ccc3F)nc12

>  <Standard Type>  (586) 
IC50

>  <Standard Relation>  (586) 
'='

>  <Standard Units>  (586) 
nM

>  <Standard Value>  (586) 
0.9

>  <Assay ChEMBL ID>  (586) 
CHEMBL3887070

>  <Assay Description>  (586) 
ELISA Assay: An enzyme-linked immunosorbant assay (ELISA) was used to assess TrkA kinase activity in the presence of inhibitors. Immulon 4HBX 384-well microtiter plates (Thermo part #8755) were coated with a 0.025 mg/mL solution of poly (Glu, Ala, Tyr; 6:3:1; Sigma P3899). Various concentrations of test compound, 2.5 nM TrkA (Invitrogen Corp., histidine-tagged recombinant human TrkA, cytoplasmic domain), and 500 uM ATP were incubated for 25 minutes at ambient temperature in the coated plates while shaking The assay buffer consisted of 25 mM MOPS pH 7.5, 0.005% (v/v) Triton X-100 and 5 mM MgCl2. The reaction mixture was removed from the plate by washing with PBS containing 0.1% (v/v) Tween 20. The phosphorylated reaction product was detected using 0.2 ug/mL of a phosphotyrosine specific monoclonal antibody (clone PY20) conjugated to horseradish peroxidase in conjunction with the TMB Peroxidase Substrate System (KPL).

>  <BAO Format ID>  (586) 
BAO_0000357

>  <BAO Label>  (586) 
single protein format

>  <Assay Organism>  (586) 
None

>  <Target ChEMBL ID>  (586) 
CHEMBL2815

>  <Target Name>  (586) 
Nerve growth factor receptor Trk-A

>  <Target Organism>  (586) 
Homo sapiens

>  <Target Type>  (586) 
SINGLE PROTEIN

>  <Document ChEMBL ID>  (586) 
CHEMBL3638907

>  <Source Description>  (586) 
BindingDB Database

>  <Document Journal>  (586) 
nan

>  <Document Year>  (586) 
2014.0

>  <Active>  (586) 
1.0

>  <bits>  (586) 
<rdkit.DataStructs.cDataStructs.ExplicitBitVect object at 0x00000159F7931EE0>

>  <Group>  (586) 
G2

$$$$

     RDKit          2D

 31 35  0  0  0  0  0  0  0  0999 V2000
   -1.8373   -5.6601    0.0000 O   0  0  0  0  0  0  0  0  0  0  0  0
   -2.9520   -4.6564    0.0000 C   0  0  0  0  0  0  0  0  0  0  0  0
   -2.6401   -3.1891    0.0000 N   0  0  0  0  0  0  0  0  0  0  0  0
   -1.2135   -2.7256    0.0000 C   0  0  0  0  0  0  0  0  0  0  0  0
   -0.0000   -3.6073    0.0000 C   0  0  0  0  0  0  0  0  0  0  0  0
    1.2135   -2.7256    0.0000 N   0  0  0  0  0  0  0  0  0  0  0  0
    0.7500   -1.2990    0.0000 N   0  0  0  0  0  0  0  0  0  0  0  0
    1.5000    0.0000    0.0000 C   0  0  0  0  0  0  0  0  0  0  0  0
    0.7500    1.2990    0.0000 C   0  0  0  0  0  0  0  0  0  0  0  0
   -0.7500    1.2990    0.0000 C   0  0  0  0  0  0  0  0  0  0  0  0
   -1.5000    2.5981    0.0000 N   0  0  0  0  0  0  0  0  0  0  0  0
   -2.9918    2.7549    0.0000 C   0  0  0  0  0  0  0  0  0  0  0  0
   -3.3037    4.2221    0.0000 C   0  0  0  0  0  0  0  0  0  0  0  0
   -2.0046    4.9721    0.0000 C   0  0  0  0  0  0  0  0  0  0  0  0
   -0.8899    3.9684    0.0000 C   0  0  0  0  0  0  0  0  0  0  0  0
    0.5773    4.2803    0.0000 C   0  0  0  0  0  0  0  0  0  0  0  0
    1.5810    3.1655    0.0000 C   0  0  0  0  0  0  0  0  0  0  0  0
    3.0482    3.4774    0.0000 C   0  0  0  0  0  0  0  0  0  0  0  0
    4.0519    2.3627    0.0000 F   0  0  0  0  0  0  0  0  0  0  0  0
    3.5118    4.9040    0.0000 C   0  0  0  0  0  0  0  0  0  0  0  0
    2.5081    6.0187    0.0000 C   0  0  0  0  0  0  0  0  0  0  0  0
    1.0409    5.7068    0.0000 C   0  0  0  0  0  0  0  0  0  0  0  0
    0.0372    6.8216    0.0000 F   0  0  0  0  0  0  0  0  0  0  0  0
   -1.5000    0.0000    0.0000 N   0  0  0  0  0  0  0  0  0  0  0  0
   -0.7500   -1.2990    0.0000 C   0  0  0  0  0  0  0  0  0  0  0  0
   -4.3786   -5.1199    0.0000 N   0  0  0  0  0  0  0  0  0  0  0  0
   -4.8421   -6.5465    0.0000 C   0  0  0  0  0  0  0  0  0  0  0  0
   -6.3421   -6.5465    0.0000 C   0  0  0  0  0  0  0  0  0  0  0  0
   -6.8056   -5.1199    0.0000 C   0  0  0  0  0  0  0  0  0  0  0  0
   -8.2322   -4.6564    0.0000 O   0  0  0  0  0  0  0  0  0  0  0  0
   -5.5921   -4.2382    0.0000 C   0  0  0  0  0  0  0  0  0  0  0  0
  1  2  2  0
  2  3  1  0
  3  4  1  0
  4  5  1  0
  5  6  2  0
  6  7  1  0
  7  8  1  0
  8  9  2  0
  9 10  1  0
 10 11  1  0
 11 12  1  0
 12 13  1  0
 13 14  1  0
 14 15  1  0
 15 16  1  6
 16 17  2  0
 17 18  1  0
 18 19  1  0
 18 20  2  0
 20 21  1  0
 21 22  2  0
 22 23  1  0
 10 24  2  0
 24 25  1  0
  2 26  1  0
 26 27  1  0
 27 28  1  0
 28 29  1  0
 29 30  1  1
 29 31  1  0
 25  4  2  0
 31 26  1  0
 25  7  1  0
 15 11  1  0
 22 16  1  0
M  END
>  <Compound_ID>  (587) 
CHEMBL4109741

>  <Molecule Name>  (587) 
nan

>  <Molecular Weight>  (587) 
428.44

>  <AlogP>  (587) 
2.95

>  <Smiles>  (587) 
O=C(Nc1cnn2ccc(N3CCC[C@@H]3c3cc(F)ccc3F)nc12)N1CC[C@@H](O)C1

>  <Standard Type>  (587) 
IC50

>  <Standard Relation>  (587) 
'='

>  <Standard Units>  (587) 
nM

>  <Standard Value>  (587) 
28.5

>  <Assay ChEMBL ID>  (587) 
CHEMBL3887076

>  <Assay Description>  (587) 
ELISA Assay: An enzyme-linked immunosorbant assay (ELISA) was used to assess TrkA kinase activity in the presence of inhibitors. Immulon 4HBX 384-well microtiter plates (Thermo part #8755) were coated with a 0.025 mg/mL solution of poly (Glu, Ala, Tyr; 6:3:1; Sigma P3899). Various concentrations of test compound, 2.5 nM TrkA (Invitrogen Corp., histidine-tagged recombinant human TrkA, cytoplasmic domain), and 500 uM ATP were incubated for 25 minutes at ambient temperature in the coated plates while shaking. The assay buffer consisted of 25 mM MOPS pH 7.5, 0.005% (v/v) Triton X-100 and 5 mM MgCl2. The reaction mixture was removed from the plate by washing with PBS containing 0.1% (v/v) Tween 20. The phosphorylated reaction product was detected using 0.2 ug/mL of a phosphotyrosine specific monoclonal antibody (clone PY20) conjugated to horseradish peroxidase in conjunction with the TMB Peroxidase Substrate System (KPL).

>  <BAO Format ID>  (587) 
BAO_0000357

>  <BAO Label>  (587) 
single protein format

>  <Assay Organism>  (587) 
None

>  <Target ChEMBL ID>  (587) 
CHEMBL2815

>  <Target Name>  (587) 
Nerve growth factor receptor Trk-A

>  <Target Organism>  (587) 
Homo sapiens

>  <Target Type>  (587) 
SINGLE PROTEIN

>  <Document ChEMBL ID>  (587) 
CHEMBL3886151

>  <Source Description>  (587) 
BindingDB Database

>  <Document Journal>  (587) 
nan

>  <Document Year>  (587) 
2014.0

>  <Active>  (587) 
1.0

>  <bits>  (587) 
<rdkit.DataStructs.cDataStructs.ExplicitBitVect object at 0x00000159F7931700>

>  <Group>  (587) 
G2

$$$$

     RDKit          2D

 31 34  0  0  0  0  0  0  0  0999 V2000
  -11.2984   -1.9377    0.0000 C   0  0  0  0  0  0  0  0  0  0  0  0
  -10.9866   -3.4049    0.0000 C   0  0  0  0  0  0  0  0  0  0  0  0
  -11.9903   -4.5196    0.0000 C   0  0  0  0  0  0  0  0  0  0  0  0
  -11.2403   -5.8186    0.0000 C   0  0  0  0  0  0  0  0  0  0  0  0
  -11.8504   -7.1890    0.0000 C   0  0  0  0  0  0  0  0  0  0  0  0
   -9.7730   -5.5068    0.0000 N   0  0  0  0  0  0  0  0  0  0  0  0
   -8.6583   -6.5105    0.0000 C   0  0  0  0  0  0  0  0  0  0  0  0
   -7.2317   -6.0469    0.0000 C   0  0  0  0  0  0  0  0  0  0  0  0
   -6.9199   -4.5797    0.0000 O   0  0  0  0  0  0  0  0  0  0  0  0
   -6.1170   -7.0506    0.0000 N   0  0  0  0  0  0  0  0  0  0  0  0
   -4.6904   -6.5871    0.0000 C   0  0  0  0  0  0  0  0  0  0  0  0
   -3.5757   -7.5908    0.0000 C   0  0  0  0  0  0  0  0  0  0  0  0
   -2.1491   -7.1273    0.0000 N   0  0  0  0  0  0  0  0  0  0  0  0
   -1.8373   -5.6601    0.0000 C   0  0  0  0  0  0  0  0  0  0  0  0
   -2.9520   -4.6564    0.0000 C   0  0  0  0  0  0  0  0  0  0  0  0
   -2.6401   -3.1891    0.0000 C   0  0  0  0  0  0  0  0  0  0  0  0
   -3.7548   -2.1855    0.0000 O   0  0  0  0  0  0  0  0  0  0  0  0
   -1.2135   -2.7256    0.0000 C   0  0  0  0  0  0  0  0  0  0  0  0
   -0.0000   -3.6073    0.0000 C   0  0  0  0  0  0  0  0  0  0  0  0
    1.2135   -2.7256    0.0000 N   0  0  0  0  0  0  0  0  0  0  0  0
    2.6401   -3.1891    0.0000 C   0  0  0  0  0  0  0  0  0  0  0  0
    2.9520   -4.6564    0.0000 C   0  0  0  0  0  0  0  0  0  0  0  0
    3.7548   -2.1855    0.0000 C   0  0  0  0  0  0  0  0  0  0  0  0
    0.7500   -1.2990    0.0000 C   0  0  0  0  0  0  0  0  0  0  0  0
    1.5000    0.0000    0.0000 C   0  0  0  0  0  0  0  0  0  0  0  0
    0.7500    1.2990    0.0000 C   0  0  0  0  0  0  0  0  0  0  0  0
   -0.7500    1.2990    0.0000 N   0  0  0  0  0  0  0  0  0  0  0  0
   -1.5000    0.0000    0.0000 C   0  0  0  0  0  0  0  0  0  0  0  0
   -0.7500   -1.2990    0.0000 C   0  0  0  0  0  0  0  0  0  0  0  0
   -4.3786   -5.1199    0.0000 C   0  0  0  0  0  0  0  0  0  0  0  0
   -9.6162   -4.0150    0.0000 N   0  0  0  0  0  0  0  0  0  0  0  0
  1  2  1  0
  2  3  1  0
  3  4  2  0
  4  5  1  0
  4  6  1  0
  6  7  1  0
  7  8  1  0
  8  9  2  0
  8 10  1  0
 10 11  1  0
 11 12  2  0
 12 13  1  0
 13 14  2  0
 14 15  1  0
 15 16  1  0
 16 17  2  0
 16 18  1  0
 18 19  2  0
 19 20  1  0
 20 21  1  0
 21 22  1  0
 21 23  1  0
 20 24  1  0
 24 25  2  0
 25 26  1  0
 26 27  2  0
 27 28  1  0
 28 29  2  0
 15 30  2  0
  6 31  1  0
 31  2  2  0
 30 11  1  0
 29 18  1  0
 29 24  1  0
M  END
>  <Compound_ID>  (588) 
CHEMBL3978432

>  <Molecule Name>  (588) 
nan

>  <Molecular Weight>  (588) 
416.49

>  <AlogP>  (588) 
3.7

>  <Smiles>  (588) 
Cc1cc(C)n(CC(=O)Nc2cncc(C(=O)c3cn(C(C)C)c4ccncc34)c2)n1

>  <Standard Type>  (588) 
IC50

>  <Standard Relation>  (588) 
'='

>  <Standard Units>  (588) 
nM

>  <Standard Value>  (588) 
92.8

>  <Assay ChEMBL ID>  (588) 
CHEMBL3887111

>  <Assay Description>  (588) 
HTRF Assay: Isolated TRK Enzyme assays use the HTRF KinEASE-TK kit (Cisbio Cat#62TK0PEJ) with recombinant His-tagged cytoplasmic domains of each TRK receptor sourced from Invitrogen (see table below). This activity-assay measures the phosphorylation of tyrosine residues within a substrate from the HTRF kit which has been validated by Cisbio for a variety of tyrosine kinases including the TRK receptors.Assay Details: Invitrogen Amino FAC FAC Assay ReactionTarget Cat# acids enzyme ATP TimeTRKA PV3144 aa 441-4 nM 40 uM 35 min (NTRK1) 796 TRKB PV3616 aa 526-1 nM 1.4 uM 40 min (NTRK2) 838 TRKC PV3617 aa 510- 10 nM 15 uM 30 min (NTRK3) 8250.5 mM stock solutions of test compounds are prepared and serially diluted in 100% DMSO. A standard curve using the compound of Example 135 disclosed in WO2005/116035 of 150 uM is also prepared on each test plate. High percentage effect (HPE) is defined by 150 uM.

>  <BAO Format ID>  (588) 
BAO_0000357

>  <BAO Label>  (588) 
single protein format

>  <Assay Organism>  (588) 
None

>  <Target ChEMBL ID>  (588) 
CHEMBL2815

>  <Target Name>  (588) 
Nerve growth factor receptor Trk-A

>  <Target Organism>  (588) 
Homo sapiens

>  <Target Type>  (588) 
SINGLE PROTEIN

>  <Document ChEMBL ID>  (588) 
CHEMBL3886170

>  <Source Description>  (588) 
BindingDB Database

>  <Document Journal>  (588) 
nan

>  <Document Year>  (588) 
2015.0

>  <Active>  (588) 
1.0

>  <bits>  (588) 
<rdkit.DataStructs.cDataStructs.ExplicitBitVect object at 0x00000159F7931690>

>  <Group>  (588) 
G2

$$$$

     RDKit          2D

 33 37  0  0  0  0  0  0  0  0999 V2000
   -1.8373   -5.6601    0.0000 O   0  0  0  0  0  0  0  0  0  0  0  0
   -2.9520   -4.6564    0.0000 C   0  0  0  0  0  0  0  0  0  0  0  0
   -4.3786   -5.1199    0.0000 N   0  0  0  0  0  0  0  0  0  0  0  0
   -4.6904   -6.5871    0.0000 C   0  0  0  0  0  0  0  0  0  0  0  0
   -6.1170   -7.0506    0.0000 C   0  0  0  0  0  0  0  0  0  0  0  0
   -6.4289   -8.5179    0.0000 C   0  0  0  0  0  0  0  0  0  0  0  0
   -5.3142   -9.5216    0.0000 C   0  0  0  0  0  0  0  0  0  0  0  0
   -5.6260  -10.9888    0.0000 Cl  0  0  0  0  0  0  0  0  0  0  0  0
   -3.8876   -9.0580    0.0000 C   0  0  0  0  0  0  0  0  0  0  0  0
   -3.5757   -7.5908    0.0000 C   0  0  0  0  0  0  0  0  0  0  0  0
   -2.6401   -3.1891    0.0000 N   0  0  0  0  0  0  0  0  0  0  0  0
   -1.2135   -2.7256    0.0000 C   0  0  0  0  0  0  0  0  0  0  0  0
   -0.0000   -3.6073    0.0000 C   0  0  0  0  0  0  0  0  0  0  0  0
    1.2135   -2.7256    0.0000 N   0  0  0  0  0  0  0  0  0  0  0  0
    0.7500   -1.2990    0.0000 N   0  0  0  0  0  0  0  0  0  0  0  0
    1.5000    0.0000    0.0000 C   0  0  0  0  0  0  0  0  0  0  0  0
    0.7500    1.2990    0.0000 C   0  0  0  0  0  0  0  0  0  0  0  0
   -0.7500    1.2990    0.0000 C   0  0  0  0  0  0  0  0  0  0  0  0
   -1.5000    2.5981    0.0000 N   0  0  0  0  0  0  0  0  0  0  0  0
   -2.9918    2.7549    0.0000 C   0  0  0  0  0  0  0  0  0  0  0  0
   -3.3037    4.2221    0.0000 C   0  0  0  0  0  0  0  0  0  0  0  0
   -2.0046    4.9721    0.0000 C   0  0  0  0  0  0  0  0  0  0  0  0
   -0.8899    3.9684    0.0000 C   0  0  0  0  0  0  0  0  0  0  0  0
    0.5773    4.2803    0.0000 C   0  0  0  0  0  0  0  0  0  0  0  0
    1.5810    3.1655    0.0000 C   0  0  0  0  0  0  0  0  0  0  0  0
    3.0482    3.4774    0.0000 C   0  0  0  0  0  0  0  0  0  0  0  0
    4.0519    2.3627    0.0000 F   0  0  0  0  0  0  0  0  0  0  0  0
    3.5118    4.9040    0.0000 C   0  0  0  0  0  0  0  0  0  0  0  0
    2.5081    6.0187    0.0000 C   0  0  0  0  0  0  0  0  0  0  0  0
    1.0409    5.7068    0.0000 C   0  0  0  0  0  0  0  0  0  0  0  0
    0.0372    6.8216    0.0000 F   0  0  0  0  0  0  0  0  0  0  0  0
   -1.5000    0.0000    0.0000 N   0  0  0  0  0  0  0  0  0  0  0  0
   -0.7500   -1.2990    0.0000 C   0  0  0  0  0  0  0  0  0  0  0  0
  1  2  2  0
  2  3  1  0
  3  4  1  0
  4  5  2  0
  5  6  1  0
  6  7  2  0
  7  8  1  0
  7  9  1  0
  9 10  2  0
  2 11  1  0
 11 12  1  0
 12 13  1  0
 13 14  2  0
 14 15  1  0
 15 16  1  0
 16 17  2  0
 17 18  1  0
 18 19  1  0
 19 20  1  0
 20 21  1  0
 21 22  1  0
 22 23  1  0
 23 24  1  6
 24 25  2  0
 25 26  1  0
 26 27  1  0
 26 28  2  0
 28 29  1  0
 29 30  2  0
 30 31  1  0
 18 32  2  0
 32 33  1  0
 10  4  1  0
 33 12  2  0
 33 15  1  0
 23 19  1  0
 30 24  1  0
M  END
>  <Compound_ID>  (589) 
CHEMBL4107931

>  <Molecule Name>  (589) 
nan

>  <Molecular Weight>  (589) 
468.9

>  <AlogP>  (589) 
5.65

>  <Smiles>  (589) 
O=C(Nc1ccc(Cl)cc1)Nc1cnn2ccc(N3CCC[C@@H]3c3cc(F)ccc3F)nc12

>  <Standard Type>  (589) 
IC50

>  <Standard Relation>  (589) 
'='

>  <Standard Units>  (589) 
nM

>  <Standard Value>  (589) 
10.1

>  <Assay ChEMBL ID>  (589) 
CHEMBL3887076

>  <Assay Description>  (589) 
ELISA Assay: An enzyme-linked immunosorbant assay (ELISA) was used to assess TrkA kinase activity in the presence of inhibitors. Immulon 4HBX 384-well microtiter plates (Thermo part #8755) were coated with a 0.025 mg/mL solution of poly (Glu, Ala, Tyr; 6:3:1; Sigma P3899). Various concentrations of test compound, 2.5 nM TrkA (Invitrogen Corp., histidine-tagged recombinant human TrkA, cytoplasmic domain), and 500 uM ATP were incubated for 25 minutes at ambient temperature in the coated plates while shaking. The assay buffer consisted of 25 mM MOPS pH 7.5, 0.005% (v/v) Triton X-100 and 5 mM MgCl2. The reaction mixture was removed from the plate by washing with PBS containing 0.1% (v/v) Tween 20. The phosphorylated reaction product was detected using 0.2 ug/mL of a phosphotyrosine specific monoclonal antibody (clone PY20) conjugated to horseradish peroxidase in conjunction with the TMB Peroxidase Substrate System (KPL).

>  <BAO Format ID>  (589) 
BAO_0000357

>  <BAO Label>  (589) 
single protein format

>  <Assay Organism>  (589) 
None

>  <Target ChEMBL ID>  (589) 
CHEMBL2815

>  <Target Name>  (589) 
Nerve growth factor receptor Trk-A

>  <Target Organism>  (589) 
Homo sapiens

>  <Target Type>  (589) 
SINGLE PROTEIN

>  <Document ChEMBL ID>  (589) 
CHEMBL3886151

>  <Source Description>  (589) 
BindingDB Database

>  <Document Journal>  (589) 
nan

>  <Document Year>  (589) 
2014.0

>  <Active>  (589) 
1.0

>  <bits>  (589) 
<rdkit.DataStructs.cDataStructs.ExplicitBitVect object at 0x00000159F7930740>

>  <Group>  (589) 
G2

$$$$

     RDKit          2D

 26 28  0  0  0  0  0  0  0  0999 V2000
    1.2990   -5.8573    0.0000 O   0  0  0  0  0  0  0  0  0  0  0  0
   -0.0000   -5.1073    0.0000 C   0  0  0  0  0  0  0  0  0  0  0  0
   -1.2990   -5.8573    0.0000 O   0  0  0  0  0  0  0  0  0  0  0  0
   -0.0000   -3.6073    0.0000 C   0  0  0  0  0  0  0  0  0  0  0  0
    1.2135   -2.7256    0.0000 C   0  0  0  0  0  0  0  0  0  0  0  0
    0.7500   -1.2990    0.0000 C   0  0  0  0  0  0  0  0  0  0  0  0
    1.5000    0.0000    0.0000 C   0  0  0  0  0  0  0  0  0  0  0  0
    0.7500    1.2990    0.0000 N   0  0  0  0  0  0  0  0  0  0  0  0
   -0.7500    1.2990    0.0000 C   0  0  0  0  0  0  0  0  0  0  0  0
   -1.5000    0.0000    0.0000 C   0  0  0  0  0  0  0  0  0  0  0  0
   -0.7500   -1.2990    0.0000 C   0  0  0  0  0  0  0  0  0  0  0  0
   -1.2135   -2.7256    0.0000 N   0  0  0  0  0  0  0  0  0  0  0  0
   -2.6401   -3.1891    0.0000 C   0  0  0  0  0  0  0  0  0  0  0  0
   -3.7548   -2.1855    0.0000 C   0  0  0  0  0  0  0  0  0  0  0  0
   -5.1814   -2.6490    0.0000 O   0  0  0  0  0  0  0  0  0  0  0  0
   -6.2961   -1.6453    0.0000 C   0  0  0  0  0  0  0  0  0  0  0  0
   -5.9843   -0.1781    0.0000 C   0  0  0  0  0  0  0  0  0  0  0  0
   -7.0990    0.8256    0.0000 C   0  0  0  0  0  0  0  0  0  0  0  0
   -8.5256    0.3621    0.0000 C   0  0  0  0  0  0  0  0  0  0  0  0
   -9.6403    1.3658    0.0000 O   0  0  0  0  0  0  0  0  0  0  0  0
   -9.3284    2.8330    0.0000 C   0  0  0  0  0  0  0  0  0  0  0  0
   -9.0165    4.3002    0.0000 F   0  0  0  0  0  0  0  0  0  0  0  0
  -10.7956    3.1449    0.0000 F   0  0  0  0  0  0  0  0  0  0  0  0
   -7.8612    2.5212    0.0000 F   0  0  0  0  0  0  0  0  0  0  0  0
   -8.8374   -1.1051    0.0000 C   0  0  0  0  0  0  0  0  0  0  0  0
   -7.7227   -2.1088    0.0000 C   0  0  0  0  0  0  0  0  0  0  0  0
  1  2  2  0
  2  3  1  0
  2  4  1  0
  4  5  2  0
  5  6  1  0
  6  7  2  0
  7  8  1  0
  8  9  2  0
  9 10  1  0
 10 11  2  0
 11 12  1  0
 12 13  1  0
 13 14  1  0
 14 15  1  0
 15 16  1  0
 16 17  2  0
 17 18  1  0
 18 19  2  0
 19 20  1  0
 20 21  1  0
 21 22  1  0
 21 23  1  0
 21 24  1  0
 19 25  1  0
 25 26  2  0
 12  4  1  0
 26 16  1  0
 11  6  1  0
M  END
>  <Compound_ID>  (590) 
CHEMBL3298451

>  <Molecule Name>  (590) 
nan

>  <Molecular Weight>  (590) 
366.3

>  <AlogP>  (590) 
3.71

>  <Smiles>  (590) 
O=C(O)c1cc2cnccc2n1CCOc1ccc(OC(F)(F)F)cc1

>  <Standard Type>  (590) 
IC50

>  <Standard Relation>  (590) 
'='

>  <Standard Units>  (590) 
nM

>  <Standard Value>  (590) 
12300.0

>  <Assay ChEMBL ID>  (590) 
CHEMBL3299478

>  <Assay Description>  (590) 
Inhibition of phsophorylated TrkA (unknown origin) assessed as inhibition of fluorescently-labelled substrate phosphorylation by CALIPER enzymatic assay

>  <BAO Format ID>  (590) 
BAO_0000357

>  <BAO Label>  (590) 
single protein format

>  <Assay Organism>  (590) 
Homo sapiens

>  <Target ChEMBL ID>  (590) 
CHEMBL2815

>  <Target Name>  (590) 
Nerve growth factor receptor Trk-A

>  <Target Organism>  (590) 
Homo sapiens

>  <Target Type>  (590) 
SINGLE PROTEIN

>  <Document ChEMBL ID>  (590) 
CHEMBL3297676

>  <Source Description>  (590) 
Scientific Literature

>  <Document Journal>  (590) 
J Med Chem

>  <Document Year>  (590) 
2014.0

>  <Active>  (590) 
0.0

>  <bits>  (590) 
<rdkit.DataStructs.cDataStructs.ExplicitBitVect object at 0x00000159F54418C0>

>  <Group>  (590) 
G2

$$$$

     RDKit          2D

 20 22  0  0  0  0  0  0  0  0999 V2000
    3.0000    0.0000    0.0000 C   0  0  0  0  0  0  0  0  0  0  0  0
    1.5000    0.0000    0.0000 C   0  0  0  0  0  0  0  0  0  0  0  0
    0.7500   -1.2990    0.0000 C   0  0  0  0  0  0  0  0  0  0  0  0
   -0.7500   -1.2990    0.0000 C   0  0  0  0  0  0  0  0  0  0  0  0
   -1.5000   -2.5981    0.0000 N   0  0  0  0  0  0  0  0  0  0  0  0
   -3.0000   -2.5981    0.0000 C   0  0  0  0  0  0  0  0  0  0  0  0
   -3.7500   -3.8971    0.0000 C   0  0  0  0  0  0  0  0  0  0  0  0
   -3.0000   -5.1962    0.0000 O   0  0  0  0  0  0  0  0  0  0  0  0
   -5.2500   -3.8971    0.0000 N   0  0  0  0  0  0  0  0  0  0  0  0
   -6.0000   -2.5981    0.0000 C   0  0  0  0  0  0  0  0  0  0  0  0
   -7.5000   -2.5981    0.0000 O   0  0  0  0  0  0  0  0  0  0  0  0
   -5.2500   -1.2990    0.0000 N   0  0  0  0  0  0  0  0  0  0  0  0
   -3.7500   -1.2990    0.0000 C   0  0  0  0  0  0  0  0  0  0  0  0
   -3.0000    0.0000    0.0000 N   0  0  0  0  0  0  0  0  0  0  0  0
   -3.7500    1.2990    0.0000 C   0  0  0  0  0  0  0  0  0  0  0  0
   -1.5000    0.0000    0.0000 C   0  0  0  0  0  0  0  0  0  0  0  0
   -0.7500    1.2990    0.0000 C   0  0  0  0  0  0  0  0  0  0  0  0
    0.7500    1.2990    0.0000 C   0  0  0  0  0  0  0  0  0  0  0  0
    1.5000    2.5981    0.0000 C   0  0  0  0  0  0  0  0  0  0  0  0
    0.7500    3.8971    0.0000 O   0  0  0  0  0  0  0  0  0  0  0  0
  1  2  1  0
  2  3  2  0
  3  4  1  0
  4  5  1  0
  5  6  2  0
  6  7  1  0
  7  8  2  0
  7  9  1  0
  9 10  1  0
 10 11  2  0
 10 12  1  0
 12 13  2  0
 13 14  1  0
 14 15  1  0
 14 16  1  0
 16 17  1  0
 17 18  2  0
 18 19  1  0
 19 20  2  0
 18  2  1  0
 16  4  2  0
 13  6  1  0
M  END
>  <Compound_ID>  (591) 
CHEMBL1397270

>  <Molecule Name>  (591) 
nan

>  <Molecular Weight>  (591) 
270.25

>  <AlogP>  (591) 
0.24

>  <Smiles>  (591) 
Cc1cc2nc3c(=O)[nH]c(=O)nc-3n(C)c2cc1C=O

>  <Standard Type>  (591) 
IC50

>  <Standard Relation>  (591) 
'='

>  <Standard Units>  (591) 
nM

>  <Standard Value>  (591) 
33000.0

>  <Assay ChEMBL ID>  (591) 
CHEMBL3861735

>  <Assay Description>  (591) 
Inhibition of mouse NGF binding to TrkA (unknown origin) by SPR method

>  <BAO Format ID>  (591) 
BAO_0000357

>  <BAO Label>  (591) 
single protein format

>  <Assay Organism>  (591) 
Homo sapiens

>  <Target ChEMBL ID>  (591) 
CHEMBL2815

>  <Target Name>  (591) 
Nerve growth factor receptor Trk-A

>  <Target Organism>  (591) 
Homo sapiens

>  <Target Type>  (591) 
SINGLE PROTEIN

>  <Document ChEMBL ID>  (591) 
CHEMBL3860101

>  <Source Description>  (591) 
Scientific Literature

>  <Document Journal>  (591) 
J Med Chem

>  <Document Year>  (591) 
2017.0

>  <Active>  (591) 
0.0

>  <bits>  (591) 
<rdkit.DataStructs.cDataStructs.ExplicitBitVect object at 0x00000159F54428F0>

>  <Group>  (591) 
G2

$$$$

     RDKit          2D

 22 24  0  0  0  0  0  0  0  0999 V2000
    3.0000   -2.5981    0.0000 O   0  0  0  0  0  0  0  0  0  0  0  0
    1.5000   -2.5981    0.0000 C   0  0  0  0  0  0  0  0  0  0  0  0
    0.7500   -1.2990    0.0000 C   0  0  0  0  0  0  0  0  0  0  0  0
    1.5000    0.0000    0.0000 C   0  0  0  0  0  0  0  0  0  0  0  0
    0.7500    1.2990    0.0000 C   0  0  0  0  0  0  0  0  0  0  0  0
   -0.7500    1.2990    0.0000 C   0  0  0  0  0  0  0  0  0  0  0  0
   -1.5000    0.0000    0.0000 C   0  0  0  0  0  0  0  0  0  0  0  0
   -3.0000   -0.0000    0.0000 C   0  0  0  0  0  0  0  0  0  0  0  0
   -3.7500   -1.2990    0.0000 C   0  0  0  0  0  0  0  0  0  0  0  0
   -5.2500   -1.2990    0.0000 N   0  0  0  0  0  4  0  0  0  0  0  0
   -6.0000   -2.5981    0.0000 O   0  0  0  0  0  0  0  0  0  0  0  0
   -6.0000   -0.0000    0.0000 O   0  0  0  0  0  1  0  0  0  0  0  0
   -3.0000   -2.5981    0.0000 C   0  0  0  0  0  0  0  0  0  0  0  0
   -1.5000   -2.5981    0.0000 C   0  0  0  0  0  0  0  0  0  0  0  0
   -0.7500   -1.2990    0.0000 C   0  0  0  0  0  0  0  0  0  0  0  0
   -0.7500   -3.8971    0.0000 C   0  0  0  0  0  0  0  0  0  0  0  0
   -1.5000   -5.1962    0.0000 O   0  0  0  0  0  0  0  0  0  0  0  0
    0.7500   -3.8971    0.0000 N   0  0  0  0  0  0  0  0  0  0  0  0
    1.5000   -5.1962    0.0000 N   0  0  0  0  0  0  0  0  0  0  0  0
    0.7500   -6.4952    0.0000 C   0  0  0  0  0  0  0  0  0  0  0  0
    1.5000   -7.7942    0.0000 C   0  0  0  0  0  0  0  0  0  0  0  0
    0.7500   -9.0933    0.0000 O   0  0  0  0  0  0  0  0  0  0  0  0
  1  2  2  0
  2  3  1  0
  3  4  1  0
  4  5  2  0
  5  6  1  0
  6  7  2  0
  7  8  1  0
  8  9  2  0
  9 10  1  0
 10 11  2  0
 10 12  1  0
  9 13  1  0
 13 14  2  0
 14 15  1  0
 14 16  1  0
 16 17  2  0
 16 18  1  0
 18 19  1  0
 19 20  1  0
 20 21  1  0
 21 22  1  0
 18  2  1  0
 15  3  2  0
 15  7  1  0
M  CHG  2  10   1  12  -1
M  END
>  <Compound_ID>  (592) 
CHEMBL440470

>  <Molecule Name>  (592) 
nan

>  <Molecular Weight>  (592) 
301.26

>  <AlogP>  (592) 
0.84

>  <Smiles>  (592) 
O=C1c2cccc3cc([N+](=O)[O-])cc(c23)C(=O)N1NCCO

>  <Standard Type>  (592) 
IC50

>  <Standard Relation>  (592) 
'='

>  <Standard Units>  (592) 
nM

>  <Standard Value>  (592) 
149000.0

>  <Assay ChEMBL ID>  (592) 
CHEMBL3861735

>  <Assay Description>  (592) 
Inhibition of mouse NGF binding to TrkA (unknown origin) by SPR method

>  <BAO Format ID>  (592) 
BAO_0000357

>  <BAO Label>  (592) 
single protein format

>  <Assay Organism>  (592) 
Homo sapiens

>  <Target ChEMBL ID>  (592) 
CHEMBL2815

>  <Target Name>  (592) 
Nerve growth factor receptor Trk-A

>  <Target Organism>  (592) 
Homo sapiens

>  <Target Type>  (592) 
SINGLE PROTEIN

>  <Document ChEMBL ID>  (592) 
CHEMBL3860101

>  <Source Description>  (592) 
Scientific Literature

>  <Document Journal>  (592) 
J Med Chem

>  <Document Year>  (592) 
2017.0

>  <Active>  (592) 
0.0

>  <bits>  (592) 
<rdkit.DataStructs.cDataStructs.ExplicitBitVect object at 0x00000159F5440580>

>  <Group>  (592) 
G2

$$$$

     RDKit          2D

 24 27  0  0  0  0  0  0  0  0999 V2000
   -6.0000   -0.0000    0.0000 C   0  0  0  0  0  0  0  0  0  0  0  0
   -5.2500   -1.2990    0.0000 C   0  0  0  0  0  0  0  0  0  0  0  0
   -3.7500   -1.2990    0.0000 O   0  0  0  0  0  0  0  0  0  0  0  0
   -3.0000   -2.5981    0.0000 C   0  0  0  0  0  0  0  0  0  0  0  0
   -3.7500   -3.8971    0.0000 O   0  0  0  0  0  0  0  0  0  0  0  0
   -1.5000   -2.5981    0.0000 N   0  0  0  0  0  0  0  0  0  0  0  0
   -0.7500   -3.8971    0.0000 C   0  0  0  0  0  0  0  0  0  0  0  0
    0.7500   -3.8971    0.0000 C   0  0  0  0  0  0  0  0  0  0  0  0
    1.5000   -2.5981    0.0000 C   0  0  0  0  0  0  0  0  0  0  0  0
    3.0000   -2.5981    0.0000 O   0  0  0  0  0  0  0  0  0  0  0  0
    0.7500   -1.2990    0.0000 C   0  0  0  0  0  0  0  0  0  0  0  0
    1.5000    0.0000    0.0000 C   0  0  0  0  0  0  0  0  0  0  0  0
    0.7500    1.2990    0.0000 C   0  0  0  0  0  0  0  0  0  0  0  0
   -0.7500    1.2990    0.0000 C   0  0  0  0  0  0  0  0  0  0  0  0
   -1.5000    0.0000    0.0000 C   0  0  0  0  0  0  0  0  0  0  0  0
   -0.7500   -1.2990    0.0000 C   0  0  0  0  0  0  0  0  0  0  0  0
    1.2135   -5.3237    0.0000 C   0  0  0  0  0  0  0  0  0  0  0  0
    2.5838   -5.9338    0.0000 C   0  0  0  0  0  0  0  0  0  0  0  0
    2.7406   -7.4256    0.0000 C   0  0  0  0  0  0  0  0  0  0  0  0
    1.5271   -8.3073    0.0000 C   0  0  0  0  0  0  0  0  0  0  0  0
    0.1568   -7.6972    0.0000 C   0  0  0  0  0  0  0  0  0  0  0  0
    0.0000   -6.2054    0.0000 C   0  0  0  0  0  0  0  0  0  0  0  0
   -1.2135   -5.3237    0.0000 C   0  0  0  0  0  0  0  0  0  0  0  0
   -2.6401   -5.7872    0.0000 O   0  0  0  0  0  0  0  0  0  0  0  0
  1  2  1  0
  2  3  1  0
  3  4  1  0
  4  5  2  0
  4  6  1  0
  6  7  1  0
  7  8  2  0
  8  9  1  0
  9 10  2  0
  9 11  1  0
 11 12  2  0
 12 13  1  0
 13 14  2  0
 14 15  1  0
 15 16  2  0
  8 17  1  0
 17 18  2  0
 18 19  1  0
 19 20  2  0
 20 21  1  0
 21 22  2  0
 22 23  1  0
 23 24  2  0
 16  6  1  0
 22 17  1  0
 23  7  1  0
 16 11  1  0
M  END
>  <Compound_ID>  (593) 
CHEMBL3629614

>  <Molecule Name>  (593) 
nan

>  <Molecular Weight>  (593) 
319.32

>  <AlogP>  (593) 
3.22

>  <Smiles>  (593) 
CCOC(=O)n1c2c(c(=O)c3ccccc31)-c1ccccc1C2=O

>  <Standard Type>  (593) 
IC50

>  <Standard Relation>  (593) 
'='

>  <Standard Units>  (593) 
nM

>  <Standard Value>  (593) 
16500.0

>  <Assay ChEMBL ID>  (593) 
CHEMBL3630034

>  <Assay Description>  (593) 
Inhibition of TrkA (unknown origin) by radiometric analysis in presence of [gamma-33P]-ATP

>  <BAO Format ID>  (593) 
BAO_0000357

>  <BAO Label>  (593) 
single protein format

>  <Assay Organism>  (593) 
Homo sapiens

>  <Target ChEMBL ID>  (593) 
CHEMBL2815

>  <Target Name>  (593) 
Nerve growth factor receptor Trk-A

>  <Target Organism>  (593) 
Homo sapiens

>  <Target Type>  (593) 
SINGLE PROTEIN

>  <Document ChEMBL ID>  (593) 
CHEMBL3627674

>  <Source Description>  (593) 
Scientific Literature

>  <Document Journal>  (593) 
Bioorg Med Chem Lett

>  <Document Year>  (593) 
2015.0

>  <Active>  (593) 
0.0

>  <bits>  (593) 
<rdkit.DataStructs.cDataStructs.ExplicitBitVect object at 0x00000159F5441E70>

>  <Group>  (593) 
G2

$$$$

     RDKit          2D

 19 22  0  0  0  0  0  0  0  0999 V2000
    2.6401   -3.1891    0.0000 O   0  0  0  0  0  0  0  0  0  0  0  0
    1.2135   -2.7256    0.0000 C   0  0  0  0  0  0  0  0  0  0  0  0
    0.7500   -1.2990    0.0000 C   0  0  0  0  0  0  0  0  0  0  0  0
    1.5000    0.0000    0.0000 C   0  0  0  0  0  0  0  0  0  0  0  0
    0.7500    1.2990    0.0000 C   0  0  0  0  0  0  0  0  0  0  0  0
   -0.7500    1.2990    0.0000 C   0  0  0  0  0  0  0  0  0  0  0  0
   -1.5000    0.0000    0.0000 C   0  0  0  0  0  0  0  0  0  0  0  0
   -0.7500   -1.2990    0.0000 C   0  0  0  0  0  0  0  0  0  0  0  0
   -1.2135   -2.7256    0.0000 C   0  0  0  0  0  0  0  0  0  0  0  0
   -0.0000   -3.6073    0.0000 C   0  0  0  0  0  0  0  0  0  0  0  0
   -0.1568   -5.0991    0.0000 O   0  0  0  0  0  0  0  0  0  0  0  0
   -1.5271   -5.7092    0.0000 C   0  0  0  0  0  0  0  0  0  0  0  0
   -1.6839   -7.2010    0.0000 C   0  0  0  0  0  0  0  0  0  0  0  0
   -3.0542   -7.8111    0.0000 C   0  0  0  0  0  0  0  0  0  0  0  0
   -4.2677   -6.9294    0.0000 C   0  0  0  0  0  0  0  0  0  0  0  0
   -4.1110   -5.4376    0.0000 C   0  0  0  0  0  0  0  0  0  0  0  0
   -2.7406   -4.8275    0.0000 C   0  0  0  0  0  0  0  0  0  0  0  0
   -2.5838   -3.3357    0.0000 C   0  0  0  0  0  0  0  0  0  0  0  0
   -3.7974   -2.4540    0.0000 O   0  0  0  0  0  0  0  0  0  0  0  0
  1  2  2  0
  2  3  1  0
  3  4  2  0
  4  5  1  0
  5  6  2  0
  6  7  1  0
  7  8  2  0
  8  9  1  0
  9 10  2  0
 10 11  1  0
 11 12  1  0
 12 13  2  0
 13 14  1  0
 14 15  2  0
 15 16  1  0
 16 17  2  0
 17 18  1  0
 18 19  2  0
 10  2  1  0
 17 12  1  0
  8  3  1  0
 18  9  1  0
M  END
>  <Compound_ID>  (594) 
CHEMBL3629616

>  <Molecule Name>  (594) 
nan

>  <Molecular Weight>  (594) 
248.24

>  <AlogP>  (594) 
3.0

>  <Smiles>  (594) 
O=C1c2ccccc2-c2c1oc1ccccc1c2=O

>  <Standard Type>  (594) 
IC50

>  <Standard Relation>  (594) 
'='

>  <Standard Units>  (594) 
nM

>  <Standard Value>  (594) 
55800.0

>  <Assay ChEMBL ID>  (594) 
CHEMBL3630034

>  <Assay Description>  (594) 
Inhibition of TrkA (unknown origin) by radiometric analysis in presence of [gamma-33P]-ATP

>  <BAO Format ID>  (594) 
BAO_0000357

>  <BAO Label>  (594) 
single protein format

>  <Assay Organism>  (594) 
Homo sapiens

>  <Target ChEMBL ID>  (594) 
CHEMBL2815

>  <Target Name>  (594) 
Nerve growth factor receptor Trk-A

>  <Target Organism>  (594) 
Homo sapiens

>  <Target Type>  (594) 
SINGLE PROTEIN

>  <Document ChEMBL ID>  (594) 
CHEMBL3627674

>  <Source Description>  (594) 
Scientific Literature

>  <Document Journal>  (594) 
Bioorg Med Chem Lett

>  <Document Year>  (594) 
2015.0

>  <Active>  (594) 
0.0

>  <bits>  (594) 
<rdkit.DataStructs.cDataStructs.ExplicitBitVect object at 0x00000159F5442570>

>  <Group>  (594) 
G2

$$$$

     RDKit          2D

 27 29  0  0  0  0  0  0  0  0999 V2000
   -0.7500   -6.4952    0.0000 C   0  0  0  0  0  0  0  0  0  0  0  0
    0.7500   -6.4952    0.0000 O   0  0  0  0  0  0  0  0  0  0  0  0
    1.5000   -5.1962    0.0000 C   0  0  0  0  0  0  0  0  0  0  0  0
    0.7500   -3.8971    0.0000 C   0  0  0  0  0  0  0  0  0  0  0  0
    1.5000   -2.5981    0.0000 C   0  0  0  0  0  0  0  0  0  0  0  0
    0.7500   -1.2990    0.0000 C   0  0  0  0  0  0  0  0  0  0  0  0
    1.5000    0.0000    0.0000 C   0  0  0  0  0  0  0  0  0  0  0  0
    0.7500    1.2990    0.0000 N   0  0  0  0  0  0  0  0  0  0  0  0
   -0.7500    1.2990    0.0000 C   0  0  0  0  0  0  0  0  0  0  0  0
   -1.5000    2.5981    0.0000 C   0  0  0  0  0  0  0  0  0  0  0  0
   -3.0000    2.5981    0.0000 C   0  0  0  0  0  0  0  0  0  0  0  0
   -3.7500    1.2990    0.0000 C   0  0  0  0  0  0  0  0  0  0  0  0
   -5.2500    1.2990    0.0000 N   0  0  0  0  0  0  0  0  0  0  0  0
   -6.0000    2.5981    0.0000 C   0  0  0  0  0  0  0  0  0  0  0  0
   -5.2500    3.8971    0.0000 O   0  0  0  0  0  0  0  0  0  0  0  0
   -7.5000    2.5981    0.0000 N   0  0  0  0  0  0  0  0  0  0  0  0
   -8.2500    3.8971    0.0000 C   0  0  0  0  0  0  0  0  0  0  0  0
   -9.5490    3.1471    0.0000 C   0  0  0  0  0  0  0  0  0  0  0  0
   -6.9510    4.6471    0.0000 C   0  0  0  0  0  0  0  0  0  0  0  0
   -9.0000    5.1962    0.0000 C   0  0  0  0  0  0  0  0  0  0  0  0
   -3.0000    0.0000    0.0000 N   0  0  0  0  0  0  0  0  0  0  0  0
   -1.5000    0.0000    0.0000 C   0  0  0  0  0  0  0  0  0  0  0  0
   -0.7500   -1.2990    0.0000 C   0  0  0  0  0  0  0  0  0  0  0  0
    3.0000   -2.5981    0.0000 C   0  0  0  0  0  0  0  0  0  0  0  0
    3.7500   -3.8971    0.0000 C   0  0  0  0  0  0  0  0  0  0  0  0
    3.0000   -5.1962    0.0000 C   0  0  0  0  0  0  0  0  0  0  0  0
    3.7500   -6.4952    0.0000 O   0  0  0  0  0  0  0  0  0  0  0  0
  1  2  1  0
  2  3  1  0
  3  4  2  0
  4  5  1  0
  5  6  1  0
  6  7  2  0
  7  8  1  0
  8  9  2  0
  9 10  1  0
 10 11  2  0
 11 12  1  0
 12 13  1  0
 13 14  1  0
 14 15  2  0
 14 16  1  0
 16 17  1  0
 17 18  1  0
 17 19  1  0
 17 20  1  0
 12 21  2  0
 21 22  1  0
 22 23  2  0
  5 24  2  0
 24 25  1  0
 25 26  2  0
 26 27  1  0
 26  3  1  0
 23  6  1  0
 22  9  1  0
M  END
>  <Compound_ID>  (595) 
CHEMBL3318026

>  <Molecule Name>  (595) 
nan

>  <Molecular Weight>  (595) 
366.42

>  <AlogP>  (595) 
3.93

>  <Smiles>  (595) 
COc1cc(-c2cnc3ccc(NC(=O)NC(C)(C)C)nc3c2)ccc1O

>  <Standard Type>  (595) 
IC50

>  <Standard Relation>  (595) 
'='

>  <Standard Units>  (595) 
nM

>  <Standard Value>  (595) 
80630.0

>  <Assay ChEMBL ID>  (595) 
CHEMBL3367500

>  <Assay Description>  (595) 
Inhibition of TrkA (unknown origin)

>  <BAO Format ID>  (595) 
BAO_0000357

>  <BAO Label>  (595) 
single protein format

>  <Assay Organism>  (595) 
Homo sapiens

>  <Target ChEMBL ID>  (595) 
CHEMBL2815

>  <Target Name>  (595) 
Nerve growth factor receptor Trk-A

>  <Target Organism>  (595) 
Homo sapiens

>  <Target Type>  (595) 
SINGLE PROTEIN

>  <Document ChEMBL ID>  (595) 
CHEMBL3351448

>  <Source Description>  (595) 
Scientific Literature

>  <Document Journal>  (595) 
Bioorg Med Chem Lett

>  <Document Year>  (595) 
2014.0

>  <Active>  (595) 
0.0

>  <bits>  (595) 
<rdkit.DataStructs.cDataStructs.ExplicitBitVect object at 0x00000159F5442B20>

>  <Group>  (595) 
G2

$$$$

     RDKit          2D

 28 31  0  0  0  0  0  0  0  0999 V2000
    4.6740   -4.8322    0.0000 C   0  0  0  0  0  0  0  0  0  0  0  0
    3.3037   -4.2221    0.0000 N   0  0  0  0  0  0  0  0  0  0  0  0
    2.9918   -2.7549    0.0000 C   0  0  0  0  0  0  0  0  0  0  0  0
    1.5000   -2.5981    0.0000 C   0  0  0  0  0  0  0  0  0  0  0  0
    0.7500   -1.2990    0.0000 C   0  0  0  0  0  0  0  0  0  0  0  0
    1.5000    0.0000    0.0000 C   0  0  0  0  0  0  0  0  0  0  0  0
    0.7500    1.2990    0.0000 N   0  0  0  0  0  0  0  0  0  0  0  0
   -0.7500    1.2990    0.0000 C   0  0  0  0  0  0  0  0  0  0  0  0
   -1.5000    2.5981    0.0000 C   0  0  0  0  0  0  0  0  0  0  0  0
   -3.0000    2.5981    0.0000 C   0  0  0  0  0  0  0  0  0  0  0  0
   -3.7500    1.2990    0.0000 C   0  0  0  0  0  0  0  0  0  0  0  0
   -5.2500    1.2990    0.0000 N   0  0  0  0  0  0  0  0  0  0  0  0
   -6.0000    2.5981    0.0000 C   0  0  0  0  0  0  0  0  0  0  0  0
   -5.2500    3.8971    0.0000 O   0  0  0  0  0  0  0  0  0  0  0  0
   -7.5000    2.5981    0.0000 N   0  0  0  0  0  0  0  0  0  0  0  0
   -8.2500    3.8971    0.0000 C   0  0  0  0  0  0  0  0  0  0  0  0
   -9.7500    3.8971    0.0000 C   0  0  0  0  0  0  0  0  0  0  0  0
  -10.5000    5.1962    0.0000 C   0  0  0  0  0  0  0  0  0  0  0  0
   -9.7500    6.4952    0.0000 C   0  0  0  0  0  0  0  0  0  0  0  0
  -10.5000    7.7942    0.0000 C   0  0  0  0  0  0  0  0  0  0  0  0
  -12.0000    7.7942    0.0000 C   0  0  0  0  0  0  0  0  0  0  0  0
  -12.7500    6.4952    0.0000 C   0  0  0  0  0  0  0  0  0  0  0  0
  -12.0000    5.1962    0.0000 C   0  0  0  0  0  0  0  0  0  0  0  0
   -3.0000    0.0000    0.0000 N   0  0  0  0  0  0  0  0  0  0  0  0
   -1.5000    0.0000    0.0000 C   0  0  0  0  0  0  0  0  0  0  0  0
   -0.7500   -1.2990    0.0000 C   0  0  0  0  0  0  0  0  0  0  0  0
    0.8899   -3.9684    0.0000 C   0  0  0  0  0  0  0  0  0  0  0  0
    2.0046   -4.9721    0.0000 N   0  0  0  0  0  0  0  0  0  0  0  0
  1  2  1  0
  2  3  1  0
  3  4  2  0
  4  5  1  0
  5  6  2  0
  6  7  1  0
  7  8  2  0
  8  9  1  0
  9 10  2  0
 10 11  1  0
 11 12  1  0
 12 13  1  0
 13 14  2  0
 13 15  1  0
 15 16  1  0
 16 17  1  0
 17 18  1  0
 18 19  2  0
 19 20  1  0
 20 21  2  0
 21 22  1  0
 22 23  2  0
 11 24  2  0
 24 25  1  0
 25 26  2  0
  4 27  1  0
 27 28  2  0
 28  2  1  0
 26  5  1  0
 25  8  1  0
 23 18  1  0
M  END
>  <Compound_ID>  (596) 
CHEMBL3318030

>  <Molecule Name>  (596) 
nan

>  <Molecular Weight>  (596) 
372.43

>  <AlogP>  (596) 
3.39

>  <Smiles>  (596) 
Cn1cc(-c2cnc3ccc(NC(=O)NCCc4ccccc4)nc3c2)cn1

>  <Standard Type>  (596) 
IC50

>  <Standard Relation>  (596) 
'='

>  <Standard Units>  (596) 
nM

>  <Standard Value>  (596) 
12670.0

>  <Assay ChEMBL ID>  (596) 
CHEMBL3367500

>  <Assay Description>  (596) 
Inhibition of TrkA (unknown origin)

>  <BAO Format ID>  (596) 
BAO_0000357

>  <BAO Label>  (596) 
single protein format

>  <Assay Organism>  (596) 
Homo sapiens

>  <Target ChEMBL ID>  (596) 
CHEMBL2815

>  <Target Name>  (596) 
Nerve growth factor receptor Trk-A

>  <Target Organism>  (596) 
Homo sapiens

>  <Target Type>  (596) 
SINGLE PROTEIN

>  <Document ChEMBL ID>  (596) 
CHEMBL3351448

>  <Source Description>  (596) 
Scientific Literature

>  <Document Journal>  (596) 
Bioorg Med Chem Lett

>  <Document Year>  (596) 
2014.0

>  <Active>  (596) 
0.0

>  <bits>  (596) 
<rdkit.DataStructs.cDataStructs.ExplicitBitVect object at 0x00000159F5441460>

>  <Group>  (596) 
G2

$$$$

     RDKit          2D

 29 32  0  0  0  0  0  0  0  0999 V2000
   -2.9520   -4.6564    0.0000 C   0  0  0  0  0  0  0  0  0  0  0  0
   -2.6401   -3.1891    0.0000 C   0  0  0  0  0  0  0  0  0  0  0  0
   -3.7548   -2.1855    0.0000 C   0  0  0  0  0  0  0  0  0  0  0  0
   -1.2135   -2.7256    0.0000 N   0  0  0  0  0  0  0  0  0  0  0  0
   -0.0000   -3.6073    0.0000 C   0  0  0  0  0  0  0  0  0  0  0  0
    1.2135   -2.7256    0.0000 C   0  0  0  0  0  0  0  0  0  0  0  0
    2.6401   -3.1891    0.0000 C   0  0  0  0  0  0  0  0  0  0  0  0
    3.7548   -2.1855    0.0000 O   0  0  0  0  0  0  0  0  0  0  0  0
    2.9520   -4.6564    0.0000 C   0  0  0  0  0  0  0  0  0  0  0  0
    1.8373   -5.6601    0.0000 C   0  0  0  0  0  0  0  0  0  0  0  0
    2.1491   -7.1273    0.0000 C   0  0  0  0  0  0  0  0  0  0  0  0
    3.5757   -7.5908    0.0000 N   0  0  0  0  0  0  0  0  0  0  0  0
    4.6904   -6.5871    0.0000 C   0  0  0  0  0  0  0  0  0  0  0  0
    6.1170   -7.0506    0.0000 N   0  0  0  0  0  0  0  0  0  0  0  0
    6.4289   -8.5179    0.0000 C   0  0  0  0  0  0  0  0  0  0  0  0
    5.3142   -9.5216    0.0000 O   0  0  0  0  0  0  0  0  0  0  0  0
    7.8555   -8.9814    0.0000 C   0  0  0  0  0  0  0  0  0  0  0  0
    8.1673  -10.4486    0.0000 N   0  0  0  0  0  0  0  0  0  0  0  0
    9.5377  -11.0587    0.0000 C   0  0  0  0  0  0  0  0  0  0  0  0
    9.3809  -12.5505    0.0000 N   0  0  0  0  0  0  0  0  0  0  0  0
    7.9136  -12.8624    0.0000 C   0  0  0  0  0  0  0  0  0  0  0  0
    7.1636  -11.5633    0.0000 N   0  0  0  0  0  0  0  0  0  0  0  0
    4.3786   -5.1199    0.0000 C   0  0  0  0  0  0  0  0  0  0  0  0
    0.7500   -1.2990    0.0000 C   0  0  0  0  0  0  0  0  0  0  0  0
    1.5000    0.0000    0.0000 C   0  0  0  0  0  0  0  0  0  0  0  0
    0.7500    1.2990    0.0000 N   0  0  0  0  0  0  0  0  0  0  0  0
   -0.7500    1.2990    0.0000 C   0  0  0  0  0  0  0  0  0  0  0  0
   -1.5000    0.0000    0.0000 C   0  0  0  0  0  0  0  0  0  0  0  0
   -0.7500   -1.2990    0.0000 C   0  0  0  0  0  0  0  0  0  0  0  0
  1  2  1  0
  2  3  1  0
  2  4  1  0
  4  5  1  0
  5  6  2  0
  6  7  1  0
  7  8  2  0
  7  9  1  0
  9 10  2  0
 10 11  1  0
 11 12  2  0
 12 13  1  0
 13 14  1  0
 14 15  1  0
 15 16  2  0
 15 17  1  0
 17 18  1  0
 18 19  1  0
 19 20  2  0
 20 21  1  0
 21 22  2  0
 13 23  2  0
  6 24  1  0
 24 25  2  0
 25 26  1  0
 26 27  2  0
 27 28  1  0
 28 29  2  0
 29  4  1  0
 23  9  1  0
 29 24  1  0
 22 18  1  0
M  END
>  <Compound_ID>  (597) 
CHEMBL3945469

>  <Molecule Name>  (597) 
nan

>  <Molecular Weight>  (597) 
389.42

>  <AlogP>  (597) 
2.47

>  <Smiles>  (597) 
CC(C)n1cc(C(=O)c2ccnc(NC(=O)Cn3cncn3)c2)c2cnccc21

>  <Standard Type>  (597) 
IC50

>  <Standard Relation>  (597) 
'='

>  <Standard Units>  (597) 
nM

>  <Standard Value>  (597) 
10100.0

>  <Assay ChEMBL ID>  (597) 
CHEMBL3887111

>  <Assay Description>  (597) 
HTRF Assay: Isolated TRK Enzyme assays use the HTRF KinEASE-TK kit (Cisbio Cat#62TK0PEJ) with recombinant His-tagged cytoplasmic domains of each TRK receptor sourced from Invitrogen (see table below). This activity-assay measures the phosphorylation of tyrosine residues within a substrate from the HTRF kit which has been validated by Cisbio for a variety of tyrosine kinases including the TRK receptors.Assay Details: Invitrogen Amino FAC FAC Assay ReactionTarget Cat# acids enzyme ATP TimeTRKA PV3144 aa 441-4 nM 40 uM 35 min (NTRK1) 796 TRKB PV3616 aa 526-1 nM 1.4 uM 40 min (NTRK2) 838 TRKC PV3617 aa 510- 10 nM 15 uM 30 min (NTRK3) 8250.5 mM stock solutions of test compounds are prepared and serially diluted in 100% DMSO. A standard curve using the compound of Example 135 disclosed in WO2005/116035 of 150 uM is also prepared on each test plate. High percentage effect (HPE) is defined by 150 uM.

>  <BAO Format ID>  (597) 
BAO_0000357

>  <BAO Label>  (597) 
single protein format

>  <Assay Organism>  (597) 
None

>  <Target ChEMBL ID>  (597) 
CHEMBL2815

>  <Target Name>  (597) 
Nerve growth factor receptor Trk-A

>  <Target Organism>  (597) 
Homo sapiens

>  <Target Type>  (597) 
SINGLE PROTEIN

>  <Document ChEMBL ID>  (597) 
CHEMBL3886170

>  <Source Description>  (597) 
BindingDB Database

>  <Document Journal>  (597) 
nan

>  <Document Year>  (597) 
2015.0

>  <Active>  (597) 
0.0

>  <bits>  (597) 
<rdkit.DataStructs.cDataStructs.ExplicitBitVect object at 0x00000159F54435A0>

>  <Group>  (597) 
G2

$$$$

     RDKit          2D

 20 23  0  0  0  0  0  0  0  0999 V2000
   -3.0000   -2.5981    0.0000 C   0  0  0  0  0  0  0  0  0  0  0  0
   -1.5000   -2.5981    0.0000 N   0  0  0  0  0  0  0  0  0  0  0  0
   -0.7500   -3.8971    0.0000 C   0  0  0  0  0  0  0  0  0  0  0  0
    0.7500   -3.8971    0.0000 C   0  0  0  0  0  0  0  0  0  0  0  0
    1.5000   -2.5981    0.0000 C   0  0  0  0  0  0  0  0  0  0  0  0
    3.0000   -2.5981    0.0000 O   0  0  0  0  0  0  0  0  0  0  0  0
    0.7500   -1.2990    0.0000 C   0  0  0  0  0  0  0  0  0  0  0  0
    1.5000    0.0000    0.0000 C   0  0  0  0  0  0  0  0  0  0  0  0
    0.7500    1.2990    0.0000 C   0  0  0  0  0  0  0  0  0  0  0  0
   -0.7500    1.2990    0.0000 C   0  0  0  0  0  0  0  0  0  0  0  0
   -1.5000    0.0000    0.0000 C   0  0  0  0  0  0  0  0  0  0  0  0
   -0.7500   -1.2990    0.0000 C   0  0  0  0  0  0  0  0  0  0  0  0
    1.2135   -5.3237    0.0000 C   0  0  0  0  0  0  0  0  0  0  0  0
    2.5838   -5.9338    0.0000 C   0  0  0  0  0  0  0  0  0  0  0  0
    2.7406   -7.4256    0.0000 C   0  0  0  0  0  0  0  0  0  0  0  0
    1.5271   -8.3073    0.0000 C   0  0  0  0  0  0  0  0  0  0  0  0
    0.1568   -7.6972    0.0000 C   0  0  0  0  0  0  0  0  0  0  0  0
    0.0000   -6.2054    0.0000 C   0  0  0  0  0  0  0  0  0  0  0  0
   -1.2135   -5.3237    0.0000 C   0  0  0  0  0  0  0  0  0  0  0  0
   -2.6401   -5.7872    0.0000 O   0  0  0  0  0  0  0  0  0  0  0  0
  1  2  1  0
  2  3  1  0
  3  4  2  0
  4  5  1  0
  5  6  2  0
  5  7  1  0
  7  8  2  0
  8  9  1  0
  9 10  2  0
 10 11  1  0
 11 12  2  0
  4 13  1  0
 13 14  2  0
 14 15  1  0
 15 16  2  0
 16 17  1  0
 17 18  2  0
 18 19  1  0
 19 20  2  0
 12  2  1  0
 18 13  1  0
 19  3  1  0
 12  7  1  0
M  END
>  <Compound_ID>  (598) 
CHEMBL3629605

>  <Molecule Name>  (598) 
nan

>  <Molecular Weight>  (598) 
261.28

>  <AlogP>  (598) 
2.75

>  <Smiles>  (598) 
Cn1c2c(c(=O)c3ccccc31)-c1ccccc1C2=O

>  <Standard Type>  (598) 
IC50

>  <Standard Relation>  (598) 
'='

>  <Standard Units>  (598) 
nM

>  <Standard Value>  (598) 
28900.0

>  <Assay ChEMBL ID>  (598) 
CHEMBL3630034

>  <Assay Description>  (598) 
Inhibition of TrkA (unknown origin) by radiometric analysis in presence of [gamma-33P]-ATP

>  <BAO Format ID>  (598) 
BAO_0000357

>  <BAO Label>  (598) 
single protein format

>  <Assay Organism>  (598) 
Homo sapiens

>  <Target ChEMBL ID>  (598) 
CHEMBL2815

>  <Target Name>  (598) 
Nerve growth factor receptor Trk-A

>  <Target Organism>  (598) 
Homo sapiens

>  <Target Type>  (598) 
SINGLE PROTEIN

>  <Document ChEMBL ID>  (598) 
CHEMBL3627674

>  <Source Description>  (598) 
Scientific Literature

>  <Document Journal>  (598) 
Bioorg Med Chem Lett

>  <Document Year>  (598) 
2015.0

>  <Active>  (598) 
0.0

>  <bits>  (598) 
<rdkit.DataStructs.cDataStructs.ExplicitBitVect object at 0x00000159F5443C30>

>  <Group>  (598) 
G2

$$$$

     RDKit          2D

 22 25  0  0  0  0  0  0  0  0999 V2000
   -5.3245   -7.1540    0.0000 C   0  0  0  0  0  0  0  0  0  0  0  0
   -4.1110   -8.0357    0.0000 O   0  0  0  0  0  0  0  0  0  0  0  0
   -2.7406   -7.4256    0.0000 C   0  0  0  0  0  0  0  0  0  0  0  0
   -1.5271   -8.3073    0.0000 C   0  0  0  0  0  0  0  0  0  0  0  0
   -0.1568   -7.6972    0.0000 C   0  0  0  0  0  0  0  0  0  0  0  0
   -0.0000   -6.2054    0.0000 C   0  0  0  0  0  0  0  0  0  0  0  0
   -1.2135   -5.3237    0.0000 C   0  0  0  0  0  0  0  0  0  0  0  0
   -2.5838   -5.9338    0.0000 C   0  0  0  0  0  0  0  0  0  0  0  0
   -0.7500   -3.8971    0.0000 C   0  0  0  0  0  0  0  0  0  0  0  0
    0.7500   -3.8971    0.0000 C   0  0  0  0  0  0  0  0  0  0  0  0
    1.5000   -2.5981    0.0000 N   0  0  0  0  0  0  0  0  0  0  0  0
    3.0000   -2.5981    0.0000 C   0  0  0  0  0  0  0  0  0  0  0  0
    0.7500   -1.2990    0.0000 C   0  0  0  0  0  0  0  0  0  0  0  0
    1.5000    0.0000    0.0000 C   0  0  0  0  0  0  0  0  0  0  0  0
    0.7500    1.2990    0.0000 C   0  0  0  0  0  0  0  0  0  0  0  0
   -0.7500    1.2990    0.0000 C   0  0  0  0  0  0  0  0  0  0  0  0
   -1.5000    0.0000    0.0000 C   0  0  0  0  0  0  0  0  0  0  0  0
   -0.7500   -1.2990    0.0000 C   0  0  0  0  0  0  0  0  0  0  0  0
   -1.5000   -2.5981    0.0000 C   0  0  0  0  0  0  0  0  0  0  0  0
   -3.0000   -2.5981    0.0000 O   0  0  0  0  0  0  0  0  0  0  0  0
    1.2135   -5.3237    0.0000 C   0  0  0  0  0  0  0  0  0  0  0  0
    2.6401   -5.7872    0.0000 O   0  0  0  0  0  0  0  0  0  0  0  0
  1  2  1  0
  2  3  1  0
  3  4  2  0
  4  5  1  0
  5  6  2  0
  6  7  1  0
  7  8  2  0
  7  9  1  0
  9 10  2  0
 10 11  1  0
 11 12  1  0
 11 13  1  0
 13 14  2  0
 14 15  1  0
 15 16  2  0
 16 17  1  0
 17 18  2  0
 18 19  1  0
 19 20  2  0
 10 21  1  0
 21 22  2  0
  8  3  1  0
 19  9  1  0
 21  6  1  0
 18 13  1  0
M  END
>  <Compound_ID>  (599) 
CHEMBL3629611

>  <Molecule Name>  (599) 
nan

>  <Molecular Weight>  (599) 
291.31

>  <AlogP>  (599) 
2.76

>  <Smiles>  (599) 
COc1ccc2c(c1)-c1c(n(C)c3ccccc3c1=O)C2=O

>  <Standard Type>  (599) 
IC50

>  <Standard Relation>  (599) 
'='

>  <Standard Units>  (599) 
nM

>  <Standard Value>  (599) 
14400.0

>  <Assay ChEMBL ID>  (599) 
CHEMBL3630034

>  <Assay Description>  (599) 
Inhibition of TrkA (unknown origin) by radiometric analysis in presence of [gamma-33P]-ATP

>  <BAO Format ID>  (599) 
BAO_0000357

>  <BAO Label>  (599) 
single protein format

>  <Assay Organism>  (599) 
Homo sapiens

>  <Target ChEMBL ID>  (599) 
CHEMBL2815

>  <Target Name>  (599) 
Nerve growth factor receptor Trk-A

>  <Target Organism>  (599) 
Homo sapiens

>  <Target Type>  (599) 
SINGLE PROTEIN

>  <Document ChEMBL ID>  (599) 
CHEMBL3627674

>  <Source Description>  (599) 
Scientific Literature

>  <Document Journal>  (599) 
Bioorg Med Chem Lett

>  <Document Year>  (599) 
2015.0

>  <Active>  (599) 
0.0

>  <bits>  (599) 
<rdkit.DataStructs.cDataStructs.ExplicitBitVect object at 0x00000159F540F1B0>

>  <Group>  (599) 
G2

$$$$

     RDKit          2D

 39 43  0  0  0  0  0  0  0  0999 V2000
    3.7500   -1.2990    0.0000 C   0  0  0  0  0  0  0  0  0  0  0  0
    3.0000    0.0000    0.0000 O   0  0  0  0  0  0  0  0  0  0  0  0
    1.5000    0.0000    0.0000 C   0  0  0  0  0  0  0  0  0  0  0  0
    0.7500   -1.2990    0.0000 C   0  0  0  0  0  0  0  0  0  0  0  0
   -0.7500   -1.2990    0.0000 C   0  0  0  0  0  0  0  0  0  0  0  0
   -1.5000    0.0000    0.0000 C   0  0  0  0  0  0  0  0  0  0  0  0
   -0.7500    1.2990    0.0000 C   0  0  0  0  0  0  0  0  0  0  0  0
   -1.5000    2.5981    0.0000 N   0  0  0  0  0  0  0  0  0  0  0  0
   -0.7500    3.8971    0.0000 C   0  0  0  0  0  0  0  0  0  0  0  0
   -1.5000    5.1962    0.0000 N   0  0  0  0  0  0  0  0  0  0  0  0
   -0.7500    6.4952    0.0000 C   0  0  0  0  0  0  0  0  0  0  0  0
    0.7500    6.4952    0.0000 C   0  0  0  0  0  0  0  0  0  0  0  0
    1.5000    7.7942    0.0000 C   0  0  0  0  0  0  0  0  0  0  0  0
    0.7500    9.0933    0.0000 C   0  0  0  0  0  0  0  0  0  0  0  0
   -0.7500    9.0933    0.0000 C   0  0  0  0  0  0  0  0  0  0  0  0
   -1.5000   10.3923    0.0000 N   0  0  0  0  0  0  0  0  0  0  0  0
   -0.7500   11.6913    0.0000 C   0  0  0  0  0  0  0  0  0  0  0  0
    0.7500   11.6913    0.0000 O   0  0  0  0  0  0  0  0  0  0  0  0
   -1.5000   12.9904    0.0000 C   0  0  0  0  0  0  0  0  0  0  0  0
   -0.7500   14.2894    0.0000 C   0  0  0  0  0  0  0  0  0  0  0  0
   -1.5000   15.5885    0.0000 C   0  0  0  0  0  0  0  0  0  0  0  0
   -3.0000   15.5885    0.0000 C   0  0  0  0  0  0  0  0  0  0  0  0
   -3.7500   16.8875    0.0000 N   0  0  0  0  0  0  0  0  0  0  0  0
   -3.0000   18.1865    0.0000 C   0  0  0  0  0  0  0  0  0  0  0  0
   -3.7500   19.4856    0.0000 C   0  0  0  0  0  0  0  0  0  0  0  0
   -5.2500   19.4856    0.0000 N   0  0  0  0  0  0  0  0  0  0  0  0
   -6.0000   20.7846    0.0000 C   0  0  0  0  0  0  0  0  0  0  0  0
   -6.0000   18.1865    0.0000 C   0  0  0  0  0  0  0  0  0  0  0  0
   -5.2500   16.8875    0.0000 C   0  0  0  0  0  0  0  0  0  0  0  0
   -3.7500   14.2894    0.0000 C   0  0  0  0  0  0  0  0  0  0  0  0
   -5.2500   14.2894    0.0000 C   0  0  0  0  0  0  0  0  0  0  0  0
   -6.7500   14.2894    0.0000 F   0  0  0  0  0  0  0  0  0  0  0  0
   -5.2500   12.7894    0.0000 F   0  0  0  0  0  0  0  0  0  0  0  0
   -5.2500   15.7894    0.0000 F   0  0  0  0  0  0  0  0  0  0  0  0
   -3.0000   12.9904    0.0000 C   0  0  0  0  0  0  0  0  0  0  0  0
   -1.5000    7.7942    0.0000 C   0  0  0  0  0  0  0  0  0  0  0  0
    0.7500    3.8971    0.0000 C   0  0  0  0  0  0  0  0  0  0  0  0
    1.5000    2.5981    0.0000 C   0  0  0  0  0  0  0  0  0  0  0  0
    0.7500    1.2990    0.0000 C   0  0  0  0  0  0  0  0  0  0  0  0
  1  2  1  0
  2  3  1  0
  3  4  2  0
  4  5  1  0
  5  6  2  0
  6  7  1  0
  7  8  2  0
  8  9  1  0
  9 10  1  0
 10 11  1  0
 11 12  2  0
 12 13  1  0
 13 14  2  0
 14 15  1  0
 15 16  1  0
 16 17  1  0
 17 18  2  0
 17 19  1  0
 19 20  2  0
 20 21  1  0
 21 22  2  0
 22 23  1  0
 23 24  1  0
 24 25  1  0
 25 26  1  0
 26 27  1  0
 26 28  1  0
 28 29  1  0
 22 30  1  0
 30 31  1  0
 31 32  1  0
 31 33  1  0
 31 34  1  0
 30 35  2  0
 15 36  2  0
  9 37  2  0
 37 38  1  0
 38 39  2  0
 39  3  1  0
 39  7  1  0
 36 11  1  0
 35 19  1  0
 29 23  1  0
M  END
>  <Compound_ID>  (600) 
CHEMBL4745330

>  <Molecule Name>  (600) 
nan

>  <Molecular Weight>  (600) 
535.57

>  <AlogP>  (600) 
6.01

>  <Smiles>  (600) 
COc1cccc2nc(Nc3cccc(NC(=O)c4ccc(N5CCN(C)CC5)c(C(F)(F)F)c4)c3)ccc12

>  <Standard Type>  (600) 
IC50

>  <Standard Relation>  (600) 
'='

>  <Standard Units>  (600) 
nM

>  <Standard Value>  (600) 
34000.0

>  <Assay ChEMBL ID>  (600) 
CHEMBL4710997

>  <Assay Description>  (600) 
Inhibition of human TRKA using poly[Glu:Tyr] (4:1) as substrate in presence of [gamma-33P]ATP by scintillation counting method

>  <BAO Format ID>  (600) 
BAO_0000357

>  <BAO Label>  (600) 
single protein format

>  <Assay Organism>  (600) 
Homo sapiens

>  <Target ChEMBL ID>  (600) 
CHEMBL2815

>  <Target Name>  (600) 
Nerve growth factor receptor Trk-A

>  <Target Organism>  (600) 
Homo sapiens

>  <Target Type>  (600) 
SINGLE PROTEIN

>  <Document ChEMBL ID>  (600) 
CHEMBL4706583

>  <Source Description>  (600) 
Scientific Literature

>  <Document Journal>  (600) 
Eur J Med Chem

>  <Document Year>  (600) 
2020.0

>  <Active>  (600) 
0.0

>  <bits>  (600) 
<rdkit.DataStructs.cDataStructs.ExplicitBitVect object at 0x00000159F540EF80>

>  <Group>  (600) 
G2

$$$$

     RDKit          2D

 24 27  0  0  0  0  0  0  0  0999 V2000
   -1.0567   -5.9808    0.0000 C   0  0  0  0  0  0  0  0  0  0  0  0
    0.1568   -5.0991    0.0000 N   0  0  0  0  0  0  0  0  0  0  0  0
    0.0000   -3.6073    0.0000 C   0  0  0  0  0  0  0  0  0  0  0  0
    1.2135   -2.7256    0.0000 C   0  0  0  0  0  0  0  0  0  0  0  0
    2.5838   -3.3357    0.0000 C   0  0  0  0  0  0  0  0  0  0  0  0
    3.7974   -2.4540    0.0000 O   0  0  0  0  0  0  0  0  0  0  0  0
    2.7406   -4.8275    0.0000 C   0  0  0  0  0  0  0  0  0  0  0  0
    4.1110   -5.4376    0.0000 C   0  0  0  0  0  0  0  0  0  0  0  0
    4.2677   -6.9294    0.0000 C   0  0  0  0  0  0  0  0  0  0  0  0
    3.0542   -7.8111    0.0000 C   0  0  0  0  0  0  0  0  0  0  0  0
    3.2110   -9.3029    0.0000 C   0  0  0  0  0  0  0  0  0  0  0  0
    3.3678  -10.7946    0.0000 F   0  0  0  0  0  0  0  0  0  0  0  0
    1.7192   -9.4597    0.0000 F   0  0  0  0  0  0  0  0  0  0  0  0
    4.7028   -9.1461    0.0000 F   0  0  0  0  0  0  0  0  0  0  0  0
    1.6839   -7.2010    0.0000 C   0  0  0  0  0  0  0  0  0  0  0  0
    1.5271   -5.7092    0.0000 C   0  0  0  0  0  0  0  0  0  0  0  0
    0.7500   -1.2990    0.0000 C   0  0  0  0  0  0  0  0  0  0  0  0
    1.5000    0.0000    0.0000 C   0  0  0  0  0  0  0  0  0  0  0  0
    0.7500    1.2990    0.0000 C   0  0  0  0  0  0  0  0  0  0  0  0
   -0.7500    1.2990    0.0000 C   0  0  0  0  0  0  0  0  0  0  0  0
   -1.5000    0.0000    0.0000 C   0  0  0  0  0  0  0  0  0  0  0  0
   -0.7500   -1.2990    0.0000 C   0  0  0  0  0  0  0  0  0  0  0  0
   -1.2135   -2.7256    0.0000 C   0  0  0  0  0  0  0  0  0  0  0  0
   -2.6401   -3.1891    0.0000 O   0  0  0  0  0  0  0  0  0  0  0  0
  1  2  1  0
  2  3  1  0
  3  4  2  0
  4  5  1  0
  5  6  2  0
  5  7  1  0
  7  8  2  0
  8  9  1  0
  9 10  2  0
 10 11  1  0
 11 12  1  0
 11 13  1  0
 11 14  1  0
 10 15  1  0
 15 16  2  0
  4 17  1  0
 17 18  2  0
 18 19  1  0
 19 20  2  0
 20 21  1  0
 21 22  2  0
 22 23  1  0
 23 24  2  0
 16  2  1  0
 22 17  1  0
 23  3  1  0
 16  7  1  0
M  END
>  <Compound_ID>  (601) 
CHEMBL3629606

>  <Molecule Name>  (601) 
nan

>  <Molecular Weight>  (601) 
329.28

>  <AlogP>  (601) 
3.77

>  <Smiles>  (601) 
Cn1c2c(c(=O)c3ccc(C(F)(F)F)cc31)-c1ccccc1C2=O

>  <Standard Type>  (601) 
IC50

>  <Standard Relation>  (601) 
'='

>  <Standard Units>  (601) 
nM

>  <Standard Value>  (601) 
117000.0

>  <Assay ChEMBL ID>  (601) 
CHEMBL3630034

>  <Assay Description>  (601) 
Inhibition of TrkA (unknown origin) by radiometric analysis in presence of [gamma-33P]-ATP

>  <BAO Format ID>  (601) 
BAO_0000357

>  <BAO Label>  (601) 
single protein format

>  <Assay Organism>  (601) 
Homo sapiens

>  <Target ChEMBL ID>  (601) 
CHEMBL2815

>  <Target Name>  (601) 
Nerve growth factor receptor Trk-A

>  <Target Organism>  (601) 
Homo sapiens

>  <Target Type>  (601) 
SINGLE PROTEIN

>  <Document ChEMBL ID>  (601) 
CHEMBL3627674

>  <Source Description>  (601) 
Scientific Literature

>  <Document Journal>  (601) 
Bioorg Med Chem Lett

>  <Document Year>  (601) 
2015.0

>  <Active>  (601) 
0.0

>  <bits>  (601) 
<rdkit.DataStructs.cDataStructs.ExplicitBitVect object at 0x00000159F540E8F0>

>  <Group>  (601) 
G2

$$$$

     RDKit          2D

 30 33  0  0  0  0  0  0  0  0999 V2000
   -7.8555   -8.9814    0.0000 C   0  0  0  0  0  0  0  0  0  0  0  0
   -8.9702   -7.9777    0.0000 C   0  0  0  0  0  0  0  0  0  0  0  0
  -10.3968   -8.4412    0.0000 C   0  0  0  0  0  0  0  0  0  0  0  0
  -11.5115   -7.4375    0.0000 C   0  0  0  0  0  0  0  0  0  0  0  0
  -11.1996   -5.9703    0.0000 N   0  0  0  0  0  0  0  0  0  0  0  0
   -9.7730   -5.5068    0.0000 C   0  0  0  0  0  0  0  0  0  0  0  0
   -8.6583   -6.5105    0.0000 C   0  0  0  0  0  0  0  0  0  0  0  0
   -7.2317   -6.0469    0.0000 C   0  0  0  0  0  0  0  0  0  0  0  0
   -6.9199   -4.5797    0.0000 O   0  0  0  0  0  0  0  0  0  0  0  0
   -6.1170   -7.0506    0.0000 N   0  0  0  0  0  0  0  0  0  0  0  0
   -4.6904   -6.5871    0.0000 C   0  0  0  0  0  0  0  0  0  0  0  0
   -3.5757   -7.5908    0.0000 C   0  0  0  0  0  0  0  0  0  0  0  0
   -2.1491   -7.1273    0.0000 N   0  0  0  0  0  0  0  0  0  0  0  0
   -1.8373   -5.6601    0.0000 C   0  0  0  0  0  0  0  0  0  0  0  0
   -2.9520   -4.6564    0.0000 C   0  0  0  0  0  0  0  0  0  0  0  0
   -2.6401   -3.1891    0.0000 C   0  0  0  0  0  0  0  0  0  0  0  0
   -3.7548   -2.1855    0.0000 O   0  0  0  0  0  0  0  0  0  0  0  0
   -1.2135   -2.7256    0.0000 C   0  0  0  0  0  0  0  0  0  0  0  0
   -0.0000   -3.6073    0.0000 C   0  0  0  0  0  0  0  0  0  0  0  0
    1.2135   -2.7256    0.0000 N   0  0  0  0  0  0  0  0  0  0  0  0
    2.6401   -3.1891    0.0000 C   0  0  0  0  0  0  0  0  0  0  0  0
    2.9520   -4.6564    0.0000 C   0  0  0  0  0  0  0  0  0  0  0  0
    3.7548   -2.1855    0.0000 C   0  0  0  0  0  0  0  0  0  0  0  0
    0.7500   -1.2990    0.0000 C   0  0  0  0  0  0  0  0  0  0  0  0
    1.5000    0.0000    0.0000 N   0  0  0  0  0  0  0  0  0  0  0  0
    0.7500    1.2990    0.0000 C   0  0  0  0  0  0  0  0  0  0  0  0
   -0.7500    1.2990    0.0000 N   0  0  0  0  0  0  0  0  0  0  0  0
   -1.5000    0.0000    0.0000 C   0  0  0  0  0  0  0  0  0  0  0  0
   -0.7500   -1.2990    0.0000 C   0  0  0  0  0  0  0  0  0  0  0  0
   -4.3786   -5.1199    0.0000 C   0  0  0  0  0  0  0  0  0  0  0  0
  1  2  1  0
  2  3  2  0
  3  4  1  0
  4  5  2  0
  5  6  1  0
  6  7  2  0
  7  8  1  0
  8  9  2  0
  8 10  1  0
 10 11  1  0
 11 12  2  0
 12 13  1  0
 13 14  2  0
 14 15  1  0
 15 16  1  0
 16 17  2  0
 16 18  1  0
 18 19  2  0
 19 20  1  0
 20 21  1  0
 21 22  1  0
 21 23  1  0
 20 24  1  0
 24 25  2  0
 25 26  1  0
 26 27  2  0
 27 28  1  0
 28 29  2  0
 15 30  2  0
  7  2  1  0
 30 11  1  0
 29 18  1  0
 29 24  1  0
M  END
>  <Compound_ID>  (602) 
CHEMBL3671380

>  <Molecule Name>  (602) 
nan

>  <Molecular Weight>  (602) 
400.44

>  <AlogP>  (602) 
3.59

>  <Smiles>  (602) 
Cc1ccncc1C(=O)Nc1cncc(C(=O)c2cn(C(C)C)c3ncncc23)c1

>  <Standard Type>  (602) 
IC50

>  <Standard Relation>  (602) 
'='

>  <Standard Units>  (602) 
nM

>  <Standard Value>  (602) 
9800000000.0

>  <Assay ChEMBL ID>  (602) 
CHEMBL3887033

>  <Assay Description>  (602) 
Enzyme Assay: Isolated TRK Enzyme assays use the HTRF KinEASE-TK kit (Cisbio Cat# 62TK0PEJ) with recombinant His-tagged cytoplasmic domains of each TRK receptor sourced from Invitrogen (see table below). This activity-assay measures the phosphorylation of tyrosine residues within a substrate from the HTRF kit which has been validated by Cisbio for a variety of tyrosine kinases including the TRK receptors. Assay details: Target:TRKA; Invitrogen Cat# PV3144; Amino acids:aa 441-796; FAC enzyme:4nM; FAC ATP:40uM; Assay Reaction Time:35min.

>  <BAO Format ID>  (602) 
BAO_0000357

>  <BAO Label>  (602) 
single protein format

>  <Assay Organism>  (602) 
None

>  <Target ChEMBL ID>  (602) 
CHEMBL2815

>  <Target Name>  (602) 
Nerve growth factor receptor Trk-A

>  <Target Organism>  (602) 
Homo sapiens

>  <Target Type>  (602) 
SINGLE PROTEIN

>  <Document ChEMBL ID>  (602) 
CHEMBL3639348

>  <Source Description>  (602) 
BindingDB Database

>  <Document Journal>  (602) 
nan

>  <Document Year>  (602) 
2014.0

>  <Active>  (602) 
0.0

>  <bits>  (602) 
<rdkit.DataStructs.cDataStructs.ExplicitBitVect object at 0x00000159F540E650>

>  <Group>  (602) 
G2

$$$$

     RDKit          2D

 36 38  0  0  0  0  0  0  0  0999 V2000
    6.2286    2.5981    0.0000 C   0  0  0  0  0  0  0  0  0  0  0  0
    5.4786    1.2990    0.0000 N   0  0  0  0  0  0  0  0  0  0  0  0
    6.2286   -0.0000    0.0000 C   0  0  0  0  0  0  0  0  0  0  0  0
    3.9786    1.2990    0.0000 C   0  0  0  0  0  0  0  0  0  0  0  0
    3.2286   -0.0000    0.0000 C   0  0  0  0  0  0  0  0  0  0  0  0
    1.7286    0.0000    0.0000 N   0  0  0  0  0  0  0  0  0  0  0  0
    1.0777    1.3515    0.0000 C   0  0  0  0  0  0  0  0  0  0  0  0
   -0.3846    1.6852    0.0000 C   0  0  0  0  0  0  0  0  0  0  0  0
   -1.5574    0.7500    0.0000 N   0  0  0  0  0  0  0  0  0  0  0  0
   -2.9088    1.4008    0.0000 C   0  0  0  0  0  0  0  0  0  0  0  0
   -4.1482    0.5558    0.0000 O   0  0  0  0  0  0  0  0  0  0  0  0
   -3.0209    2.8966    0.0000 C   0  0  0  0  0  0  0  0  0  0  0  0
   -4.2970    3.6852    0.0000 C   0  0  0  0  0  0  0  0  0  0  0  0
   -3.9413    5.1424    0.0000 C   0  0  0  0  0  0  0  0  0  0  0  0
   -4.9112    6.2866    0.0000 C   0  0  0  0  0  0  0  0  0  0  0  0
   -3.7670    7.2565    0.0000 C   0  0  0  0  0  0  0  0  0  0  0  0
   -6.0555    5.3167    0.0000 C   0  0  0  0  0  0  0  0  0  0  0  0
   -5.8811    7.4309    0.0000 C   0  0  0  0  0  0  0  0  0  0  0  0
   -2.4455    5.2545    0.0000 S   0  0  0  0  0  0  0  0  0  0  0  0
   -1.8767    3.8665    0.0000 C   0  0  0  0  0  0  0  0  0  0  0  0
   -0.4195    3.5109    0.0000 N   0  0  0  0  0  0  0  0  0  0  0  0
    0.6171    4.5951    0.0000 C   0  0  0  0  0  0  0  0  0  0  0  0
    0.1965    6.0349    0.0000 O   0  0  0  0  0  0  0  0  0  0  0  0
    2.0744    4.2395    0.0000 N   0  0  0  0  0  0  0  0  0  0  0  0
    3.1110    5.3237    0.0000 C   0  0  0  0  0  0  0  0  0  0  0  0
    4.5682    4.9681    0.0000 C   0  0  0  0  0  0  0  0  0  0  0  0
    5.6048    6.0522    0.0000 C   0  0  0  0  0  0  0  0  0  0  0  0
    5.1842    7.4921    0.0000 C   0  0  0  0  0  0  0  0  0  0  0  0
    3.7269    7.8477    0.0000 C   0  0  0  0  0  0  0  0  0  0  0  0
    3.3063    9.2875    0.0000 Cl  0  0  0  0  0  0  0  0  0  0  0  0
    2.6903    6.7635    0.0000 C   0  0  0  0  0  0  0  0  0  0  0  0
    1.2331    7.1191    0.0000 Cl  0  0  0  0  0  0  0  0  0  0  0  0
   -1.5574   -0.7500    0.0000 C   0  0  0  0  0  0  0  0  0  0  0  0
   -0.3846   -1.6852    0.0000 C   0  0  0  0  0  0  0  0  0  0  0  0
    1.0777   -1.3515    0.0000 C   0  0  0  0  0  0  0  0  0  0  0  0
    2.0130   -2.5242    0.0000 O   0  0  0  0  0  0  0  0  0  0  0  0
  1  2  1  0
  2  3  1  0
  2  4  1  0
  4  5  1  0
  5  6  1  0
  6  7  1  0
  7  8  1  0
  8  9  1  0
  9 10  1  0
 10 11  2  0
 10 12  1  0
 12 13  1  0
 13 14  2  0
 14 15  1  0
 15 16  1  0
 15 17  1  0
 15 18  1  0
 14 19  1  0
 19 20  1  0
 20 21  1  0
 21 22  1  0
 22 23  2  0
 22 24  1  0
 24 25  1  0
 25 26  2  0
 26 27  1  0
 27 28  2  0
 28 29  1  0
 29 30  1  0
 29 31  2  0
 31 32  1  0
  9 33  1  0
 33 34  1  0
 34 35  1  0
 35 36  2  0
 35  6  1  0
 20 12  2  0
 31 25  1  0
M  END
>  <Compound_ID>  (603) 
CHEMBL1929238

>  <Molecule Name>  (603) 
nan

>  <Molecular Weight>  (603) 
554.54

>  <AlogP>  (603) 
5.23

>  <Smiles>  (603) 
CN(C)CCN1CCN(C(=O)c2cc(C(C)(C)C)sc2NC(=O)Nc2cccc(Cl)c2Cl)CCC1=O

>  <Standard Type>  (603) 
IC50

>  <Standard Relation>  (603) 
'='

>  <Standard Units>  (603) 
nM

>  <Standard Value>  (603) 
29000.0

>  <Assay ChEMBL ID>  (603) 
CHEMBL1931566

>  <Assay Description>  (603) 
Inhibition of TRKA

>  <BAO Format ID>  (603) 
BAO_0000357

>  <BAO Label>  (603) 
single protein format

>  <Assay Organism>  (603) 
None

>  <Target ChEMBL ID>  (603) 
CHEMBL2815

>  <Target Name>  (603) 
Nerve growth factor receptor Trk-A

>  <Target Organism>  (603) 
Homo sapiens

>  <Target Type>  (603) 
SINGLE PROTEIN

>  <Document ChEMBL ID>  (603) 
CHEMBL1926590

>  <Source Description>  (603) 
Scientific Literature

>  <Document Journal>  (603) 
Bioorg Med Chem Lett

>  <Document Year>  (603) 
2011.0

>  <Active>  (603) 
0.0

>  <bits>  (603) 
<rdkit.DataStructs.cDataStructs.ExplicitBitVect object at 0x00000159F540E1F0>

>  <Group>  (603) 
G2

$$$$

     RDKit          2D

 22 25  0  0  0  0  0  0  0  0999 V2000
   -5.1677   -5.6622    0.0000 C   0  0  0  0  0  0  0  0  0  0  0  0
   -3.7974   -5.0521    0.0000 O   0  0  0  0  0  0  0  0  0  0  0  0
   -2.5838   -5.9338    0.0000 C   0  0  0  0  0  0  0  0  0  0  0  0
   -2.7406   -7.4256    0.0000 C   0  0  0  0  0  0  0  0  0  0  0  0
   -1.5271   -8.3073    0.0000 C   0  0  0  0  0  0  0  0  0  0  0  0
   -0.1568   -7.6972    0.0000 C   0  0  0  0  0  0  0  0  0  0  0  0
   -0.0000   -6.2054    0.0000 C   0  0  0  0  0  0  0  0  0  0  0  0
   -1.2135   -5.3237    0.0000 C   0  0  0  0  0  0  0  0  0  0  0  0
   -0.7500   -3.8971    0.0000 C   0  0  0  0  0  0  0  0  0  0  0  0
    0.7500   -3.8971    0.0000 C   0  0  0  0  0  0  0  0  0  0  0  0
    1.5000   -2.5981    0.0000 N   0  0  0  0  0  0  0  0  0  0  0  0
    3.0000   -2.5981    0.0000 C   0  0  0  0  0  0  0  0  0  0  0  0
    0.7500   -1.2990    0.0000 C   0  0  0  0  0  0  0  0  0  0  0  0
    1.5000    0.0000    0.0000 C   0  0  0  0  0  0  0  0  0  0  0  0
    0.7500    1.2990    0.0000 C   0  0  0  0  0  0  0  0  0  0  0  0
   -0.7500    1.2990    0.0000 C   0  0  0  0  0  0  0  0  0  0  0  0
   -1.5000    0.0000    0.0000 C   0  0  0  0  0  0  0  0  0  0  0  0
   -0.7500   -1.2990    0.0000 C   0  0  0  0  0  0  0  0  0  0  0  0
   -1.5000   -2.5981    0.0000 C   0  0  0  0  0  0  0  0  0  0  0  0
   -3.0000   -2.5981    0.0000 O   0  0  0  0  0  0  0  0  0  0  0  0
    1.2135   -5.3237    0.0000 C   0  0  0  0  0  0  0  0  0  0  0  0
    2.6401   -5.7872    0.0000 O   0  0  0  0  0  0  0  0  0  0  0  0
  1  2  1  0
  2  3  1  0
  3  4  2  0
  4  5  1  0
  5  6  2  0
  6  7  1  0
  7  8  2  0
  8  9  1  0
  9 10  2  0
 10 11  1  0
 11 12  1  0
 11 13  1  0
 13 14  2  0
 14 15  1  0
 15 16  2  0
 16 17  1  0
 17 18  2  0
 18 19  1  0
 19 20  2  0
 10 21  1  0
 21 22  2  0
  8  3  1  0
 19  9  1  0
 21  7  1  0
 18 13  1  0
M  END
>  <Compound_ID>  (604) 
CHEMBL3629612

>  <Molecule Name>  (604) 
nan

>  <Molecular Weight>  (604) 
291.31

>  <AlogP>  (604) 
2.76

>  <Smiles>  (604) 
COc1cccc2c1-c1c(n(C)c3ccccc3c1=O)C2=O

>  <Standard Type>  (604) 
IC50

>  <Standard Relation>  (604) 
'='

>  <Standard Units>  (604) 
nM

>  <Standard Value>  (604) 
209000.0

>  <Assay ChEMBL ID>  (604) 
CHEMBL3630034

>  <Assay Description>  (604) 
Inhibition of TrkA (unknown origin) by radiometric analysis in presence of [gamma-33P]-ATP

>  <BAO Format ID>  (604) 
BAO_0000357

>  <BAO Label>  (604) 
single protein format

>  <Assay Organism>  (604) 
Homo sapiens

>  <Target ChEMBL ID>  (604) 
CHEMBL2815

>  <Target Name>  (604) 
Nerve growth factor receptor Trk-A

>  <Target Organism>  (604) 
Homo sapiens

>  <Target Type>  (604) 
SINGLE PROTEIN

>  <Document ChEMBL ID>  (604) 
CHEMBL3627674

>  <Source Description>  (604) 
Scientific Literature

>  <Document Journal>  (604) 
Bioorg Med Chem Lett

>  <Document Year>  (604) 
2015.0

>  <Active>  (604) 
0.0

>  <bits>  (604) 
<rdkit.DataStructs.cDataStructs.ExplicitBitVect object at 0x00000159F540DB60>

>  <Group>  (604) 
G2

$$$$

     RDKit          2D

 41 46  0  0  0  0  0  0  0  0999 V2000
    3.0000    0.0000    0.0000 N   0  0  0  0  0  0  0  0  0  0  0  0
    1.5000    0.0000    0.0000 C   0  0  0  0  0  0  0  0  0  0  0  0
    0.7500   -1.2990    0.0000 N   0  0  0  0  0  0  0  0  0  0  0  0
   -0.7500   -1.2990    0.0000 C   0  0  0  0  0  0  0  0  0  0  0  0
   -1.7537   -2.4138    0.0000 N   0  0  0  0  0  0  0  0  0  0  0  0
   -3.1240   -1.8037    0.0000 C   0  0  0  0  0  0  0  0  0  0  0  0
   -4.4231   -2.5537    0.0000 C   0  0  0  0  0  0  0  0  0  0  0  0
   -4.4231   -4.0537    0.0000 N   0  0  0  0  0  0  0  0  0  0  0  0
   -5.7221   -4.8037    0.0000 C   0  0  0  0  0  0  0  0  0  0  0  0
   -5.7221   -6.3037    0.0000 C   0  0  0  0  0  0  0  0  0  0  0  0
   -4.4231   -7.0537    0.0000 N   0  0  0  0  0  0  0  0  0  0  0  0
   -4.4231   -8.5537    0.0000 C   0  0  0  0  0  0  0  0  0  0  0  0
   -5.7221   -9.3037    0.0000 C   0  0  0  0  0  0  0  0  0  0  0  0
   -5.7221  -10.8037    0.0000 C   0  0  0  0  0  0  0  0  0  0  0  0
   -7.0211  -11.5537    0.0000 Cl  0  0  0  0  0  0  0  0  0  0  0  0
   -4.4231  -11.5537    0.0000 C   0  0  0  0  0  0  0  0  0  0  0  0
   -3.1240  -10.8037    0.0000 C   0  0  0  0  0  0  0  0  0  0  0  0
   -1.8250  -11.5537    0.0000 Cl  0  0  0  0  0  0  0  0  0  0  0  0
   -3.1240   -9.3037    0.0000 C   0  0  0  0  0  0  0  0  0  0  0  0
   -3.1240   -6.3037    0.0000 C   0  0  0  0  0  0  0  0  0  0  0  0
   -3.1240   -4.8037    0.0000 C   0  0  0  0  0  0  0  0  0  0  0  0
   -2.9672   -0.3119    0.0000 C   0  0  0  0  0  0  0  0  0  0  0  0
   -4.0819    0.6918    0.0000 C   0  0  0  0  0  0  0  0  0  0  0  0
   -5.5085    0.2283    0.0000 N   0  0  0  0  0  0  0  0  0  0  0  0
   -6.6232    1.2320    0.0000 C   0  0  0  0  0  0  0  0  0  0  0  0
   -8.0498    0.7685    0.0000 C   0  0  0  0  0  0  0  0  0  0  0  0
   -8.3617   -0.6987    0.0000 N   0  0  0  0  0  0  0  0  0  0  0  0
   -9.7883   -1.1623    0.0000 C   0  0  0  0  0  0  0  0  0  0  0  0
  -10.9030   -0.1586    0.0000 C   0  0  0  0  0  0  0  0  0  0  0  0
  -12.3296   -0.6221    0.0000 C   0  0  0  0  0  0  0  0  0  0  0  0
  -13.4443    0.3816    0.0000 Cl  0  0  0  0  0  0  0  0  0  0  0  0
  -12.6414   -2.0893    0.0000 C   0  0  0  0  0  0  0  0  0  0  0  0
  -11.5267   -3.0930    0.0000 C   0  0  0  0  0  0  0  0  0  0  0  0
  -11.8386   -4.5602    0.0000 Cl  0  0  0  0  0  0  0  0  0  0  0  0
  -10.1001   -2.6295    0.0000 C   0  0  0  0  0  0  0  0  0  0  0  0
   -7.2470   -1.7024    0.0000 C   0  0  0  0  0  0  0  0  0  0  0  0
   -5.8204   -1.2389    0.0000 C   0  0  0  0  0  0  0  0  0  0  0  0
   -1.5000    0.0000    0.0000 C   0  0  0  0  0  0  0  0  0  0  0  0
   -0.7500    1.2990    0.0000 C   0  0  0  0  0  0  0  0  0  0  0  0
   -1.5000    2.5981    0.0000 O   0  0  0  0  0  0  0  0  0  0  0  0
    0.7500    1.2990    0.0000 N   0  0  0  0  0  0  0  0  0  0  0  0
  1  2  1  0
  2  3  2  0
  3  4  1  0
  4  5  1  0
  5  6  1  0
  6  7  1  0
  7  8  1  0
  8  9  1  0
  9 10  1  0
 10 11  1  0
 11 12  1  0
 12 13  2  0
 13 14  1  0
 14 15  1  0
 14 16  2  0
 16 17  1  0
 17 18  1  0
 17 19  2  0
 11 20  1  0
 20 21  1  0
  6 22  2  0
 22 23  1  0
 23 24  1  0
 24 25  1  0
 25 26  1  0
 26 27  1  0
 27 28  1  0
 28 29  2  0
 29 30  1  0
 30 31  1  0
 30 32  2  0
 32 33  1  0
 33 34  1  0
 33 35  2  0
 27 36  1  0
 36 37  1  0
 22 38  1  0
 38 39  1  0
 39 40  2  0
 39 41  1  0
 41  2  1  0
 38  4  2  0
 21  8  1  0
 37 24  1  0
 19 12  1  0
 35 28  1  0
M  END
>  <Compound_ID>  (605) 
CHEMBL4790677

>  <Molecule Name>  (605) 
nan

>  <Molecular Weight>  (605) 
636.42

>  <AlogP>  (605) 
5.09

>  <Smiles>  (605) 
Nc1nc2[nH]c(CN3CCN(c4cc(Cl)cc(Cl)c4)CC3)c(CN3CCN(c4cc(Cl)cc(Cl)c4)CC3)c2c(=O)[nH]1

>  <Standard Type>  (605) 
IC50

>  <Standard Relation>  (605) 
'='

>  <Standard Units>  (605) 
nM

>  <Standard Value>  (605) 
12400.0

>  <Assay ChEMBL ID>  (605) 
CHEMBL4674893

>  <Assay Description>  (605) 
Inhibition of human Trk-A using myelin basic protein as substrate incubated for 40 mins in presence of [gamma33P]ATP by scintillation counting method

>  <BAO Format ID>  (605) 
BAO_0000357

>  <BAO Label>  (605) 
single protein format

>  <Assay Organism>  (605) 
Homo sapiens

>  <Target ChEMBL ID>  (605) 
CHEMBL2815

>  <Target Name>  (605) 
Nerve growth factor receptor Trk-A

>  <Target Organism>  (605) 
Homo sapiens

>  <Target Type>  (605) 
SINGLE PROTEIN

>  <Document ChEMBL ID>  (605) 
CHEMBL4673219

>  <Source Description>  (605) 
Scientific Literature

>  <Document Journal>  (605) 
Bioorg Med Chem

>  <Document Year>  (605) 
2018.0

>  <Active>  (605) 
0.0

>  <bits>  (605) 
<rdkit.DataStructs.cDataStructs.ExplicitBitVect object at 0x00000159F540EFF0>

>  <Group>  (605) 
G2

$$$$

     RDKit          2D

 34 38  0  0  0  0  0  0  0  0999 V2000
   -7.9882  -15.8540    0.0000 C   0  0  0  0  0  0  0  0  0  0  0  0
   -6.5616  -15.3904    0.0000 O   0  0  0  0  0  0  0  0  0  0  0  0
   -6.2498  -13.9232    0.0000 C   0  0  0  0  0  0  0  0  0  0  0  0
   -7.3645  -12.9195    0.0000 C   0  0  0  0  0  0  0  0  0  0  0  0
   -7.0526  -11.4523    0.0000 C   0  0  0  0  0  0  0  0  0  0  0  0
   -5.6260  -10.9888    0.0000 C   0  0  0  0  0  0  0  0  0  0  0  0
   -5.3142   -9.5216    0.0000 C   0  0  0  0  0  0  0  0  0  0  0  0
   -3.8876   -9.0580    0.0000 O   0  0  0  0  0  0  0  0  0  0  0  0
   -3.5757   -7.5908    0.0000 C   0  0  0  0  0  0  0  0  0  0  0  0
   -2.1491   -7.1273    0.0000 C   0  0  0  0  0  0  0  0  0  0  0  0
   -1.8373   -5.6601    0.0000 C   0  0  0  0  0  0  0  0  0  0  0  0
   -2.9520   -4.6564    0.0000 C   0  0  0  0  0  0  0  0  0  0  0  0
   -2.6401   -3.1891    0.0000 C   0  0  0  0  0  0  0  0  0  0  0  0
   -1.2135   -2.7256    0.0000 N   0  0  0  0  0  0  0  0  0  0  0  0
   -0.0000   -3.6073    0.0000 C   0  0  0  0  0  0  0  0  0  0  0  0
    1.2135   -2.7256    0.0000 N   0  0  0  0  0  0  0  0  0  0  0  0
    0.7500   -1.2990    0.0000 C   0  0  0  0  0  0  0  0  0  0  0  0
    1.5000    0.0000    0.0000 C   0  0  0  0  0  0  0  0  0  0  0  0
    0.7500    1.2990    0.0000 C   0  0  0  0  0  0  0  0  0  0  0  0
    1.5000    2.5981    0.0000 C   0  0  0  0  0  0  0  0  0  0  0  0
    3.0000    2.5981    0.0000 C   0  0  0  0  0  0  0  0  0  0  0  0
    3.7500    3.8971    0.0000 C   0  0  0  0  0  0  0  0  0  0  0  0
    3.0000    5.1962    0.0000 N   0  0  0  0  0  0  0  0  0  0  0  0
    1.5000    5.1962    0.0000 C   0  0  0  0  0  0  0  0  0  0  0  0
    0.7500    3.8971    0.0000 C   0  0  0  0  0  0  0  0  0  0  0  0
   -0.7500    1.2990    0.0000 C   0  0  0  0  0  0  0  0  0  0  0  0
   -1.5000    0.0000    0.0000 C   0  0  0  0  0  0  0  0  0  0  0  0
   -0.7500   -1.2990    0.0000 C   0  0  0  0  0  0  0  0  0  0  0  0
   -4.3786   -5.1199    0.0000 C   0  0  0  0  0  0  0  0  0  0  0  0
   -4.6904   -6.5871    0.0000 C   0  0  0  0  0  0  0  0  0  0  0  0
   -6.1170   -7.0506    0.0000 O   0  0  0  0  0  0  0  0  0  0  0  0
   -7.2317   -6.0469    0.0000 C   0  0  0  0  0  0  0  0  0  0  0  0
   -4.5113  -11.9925    0.0000 C   0  0  0  0  0  0  0  0  0  0  0  0
   -4.8232  -13.4597    0.0000 N   0  0  0  0  0  0  0  0  0  0  0  0
  1  2  1  0
  2  3  1  0
  3  4  2  0
  4  5  1  0
  5  6  2  0
  6  7  1  0
  7  8  1  0
  8  9  1  0
  9 10  2  0
 10 11  1  0
 11 12  2  0
 12 13  1  0
 13 14  1  0
 14 15  1  0
 15 16  2  0
 16 17  1  0
 17 18  2  0
 18 19  1  0
 19 20  1  0
 20 21  1  0
 21 22  1  0
 22 23  1  0
 23 24  1  0
 24 25  1  0
 19 26  2  0
 26 27  1  0
 27 28  2  0
 12 29  1  0
 29 30  2  0
 30 31  1  0
 31 32  1  0
  6 33  1  0
 33 34  2  0
 34  3  1  0
 30  9  1  0
 28 14  1  0
 28 17  1  0
 25 20  1  0
M  END
>  <Compound_ID>  (606) 
CHEMBL3673445

>  <Molecule Name>  (606) 
nan

>  <Molecular Weight>  (606) 
458.56

>  <AlogP>  (606) 
4.54

>  <Smiles>  (606) 
COc1ccc(COc2ccc(Cn3cnc4cc(C5CCNCC5)ccc43)cc2OC)cn1

>  <Standard Type>  (606) 
IC50

>  <Standard Relation>  (606) 
'='

>  <Standard Units>  (606) 
nM

>  <Standard Value>  (606) 
11100.0

>  <Assay ChEMBL ID>  (606) 
CHEMBL3887112

>  <Assay Description>  (606) 
Inhibition Assay: Reagents and consumables were purchased from Sigma Aldrich, Carna Biosciences, or Caliper Life Sciences. All assay reaction conditions for IC50 determinations were within the linear range with respect to time and enzyme concentration. In a 384 well polypropylene plate, TrkA (0.4 nM, Carna 08-186) was pre-incubated in a 100 mM Hepes-NaOH pH 7.5 buffer containing 0.01% Triton X-100, 10 mM MgCl2, 0.1% BSA, 1 mM DTT, 10 uM sodium orthovanadate and 10 uM beta-glycerophosphate and compound with a concentration of 2.5% DMSO for 15 minutes at room temperature. The reaction was initiated with an equal volume of peptide substrate (Caliper Life Sciences catalog no. 760430) and ATP in the aforementioned buffer. The final concentrations in the reaction were 200 pM TrkA, 1.5 uM peptide substrate and 55 uM ATP (ATP Km). The reaction was incubated at room temperature for 180 minutes and terminated with a buffer containing excess EDTA (100 mM Hepes-NaOH pH 7.5, 0.02% Brij.

>  <BAO Format ID>  (606) 
BAO_0000357

>  <BAO Label>  (606) 
single protein format

>  <Assay Organism>  (606) 
None

>  <Target ChEMBL ID>  (606) 
CHEMBL2815

>  <Target Name>  (606) 
Nerve growth factor receptor Trk-A

>  <Target Organism>  (606) 
Homo sapiens

>  <Target Type>  (606) 
SINGLE PROTEIN

>  <Document ChEMBL ID>  (606) 
CHEMBL3638818

>  <Source Description>  (606) 
BindingDB Database

>  <Document Journal>  (606) 
nan

>  <Document Year>  (606) 
2015.0

>  <Active>  (606) 
0.0

>  <bits>  (606) 
<rdkit.DataStructs.cDataStructs.ExplicitBitVect object at 0x00000159F540F450>

>  <Group>  (606) 
G2

$$$$

     RDKit          2D

 21 24  0  0  0  0  0  0  0  0999 V2000
   -1.0567   -8.5788    0.0000 C   0  0  0  0  0  0  0  0  0  0  0  0
    0.1568   -7.6972    0.0000 C   0  0  0  0  0  0  0  0  0  0  0  0
    1.5271   -8.3073    0.0000 C   0  0  0  0  0  0  0  0  0  0  0  0
    2.7406   -7.4256    0.0000 C   0  0  0  0  0  0  0  0  0  0  0  0
    2.5838   -5.9338    0.0000 C   0  0  0  0  0  0  0  0  0  0  0  0
    1.2135   -5.3237    0.0000 C   0  0  0  0  0  0  0  0  0  0  0  0
   -0.0000   -6.2054    0.0000 C   0  0  0  0  0  0  0  0  0  0  0  0
   -1.2135   -5.3237    0.0000 C   0  0  0  0  0  0  0  0  0  0  0  0
   -2.6401   -5.7872    0.0000 O   0  0  0  0  0  0  0  0  0  0  0  0
   -0.7500   -3.8971    0.0000 C   0  0  0  0  0  0  0  0  0  0  0  0
    0.7500   -3.8971    0.0000 C   0  0  0  0  0  0  0  0  0  0  0  0
    1.5000   -2.5981    0.0000 C   0  0  0  0  0  0  0  0  0  0  0  0
    3.0000   -2.5981    0.0000 O   0  0  0  0  0  0  0  0  0  0  0  0
    0.7500   -1.2990    0.0000 C   0  0  0  0  0  0  0  0  0  0  0  0
    1.5000    0.0000    0.0000 C   0  0  0  0  0  0  0  0  0  0  0  0
    0.7500    1.2990    0.0000 C   0  0  0  0  0  0  0  0  0  0  0  0
   -0.7500    1.2990    0.0000 C   0  0  0  0  0  0  0  0  0  0  0  0
   -1.5000    0.0000    0.0000 C   0  0  0  0  0  0  0  0  0  0  0  0
   -0.7500   -1.2990    0.0000 C   0  0  0  0  0  0  0  0  0  0  0  0
   -1.5000   -2.5981    0.0000 N   0  0  0  0  0  0  0  0  0  0  0  0
   -3.0000   -2.5981    0.0000 C   0  0  0  0  0  0  0  0  0  0  0  0
  1  2  1  0
  2  3  2  0
  3  4  1  0
  4  5  2  0
  5  6  1  0
  6  7  2  0
  7  8  1  0
  8  9  2  0
  8 10  1  0
 10 11  2  0
 11 12  1  0
 12 13  2  0
 12 14  1  0
 14 15  2  0
 15 16  1  0
 16 17  2  0
 17 18  1  0
 18 19  2  0
 19 20  1  0
 20 21  1  0
  7  2  1  0
 20 10  1  0
 11  6  1  0
 19 14  1  0
M  END
>  <Compound_ID>  (607) 
CHEMBL3629607

>  <Molecule Name>  (607) 
nan

>  <Molecular Weight>  (607) 
275.31

>  <AlogP>  (607) 
3.06

>  <Smiles>  (607) 
Cc1cccc2c1C(=O)c1c-2c(=O)c2ccccc2n1C

>  <Standard Type>  (607) 
IC50

>  <Standard Relation>  (607) 
'='

>  <Standard Units>  (607) 
nM

>  <Standard Value>  (607) 
73300.0

>  <Assay ChEMBL ID>  (607) 
CHEMBL3630034

>  <Assay Description>  (607) 
Inhibition of TrkA (unknown origin) by radiometric analysis in presence of [gamma-33P]-ATP

>  <BAO Format ID>  (607) 
BAO_0000357

>  <BAO Label>  (607) 
single protein format

>  <Assay Organism>  (607) 
Homo sapiens

>  <Target ChEMBL ID>  (607) 
CHEMBL2815

>  <Target Name>  (607) 
Nerve growth factor receptor Trk-A

>  <Target Organism>  (607) 
Homo sapiens

>  <Target Type>  (607) 
SINGLE PROTEIN

>  <Document ChEMBL ID>  (607) 
CHEMBL3627674

>  <Source Description>  (607) 
Scientific Literature

>  <Document Journal>  (607) 
Bioorg Med Chem Lett

>  <Document Year>  (607) 
2015.0

>  <Active>  (607) 
0.0

>  <bits>  (607) 
<rdkit.DataStructs.cDataStructs.ExplicitBitVect object at 0x00000159F540E420>

>  <Group>  (607) 
G2

$$$$

     RDKit          2D

 21 24  0  0  0  0  0  0  0  0999 V2000
   -1.0567   -5.9808    0.0000 C   0  0  0  0  0  0  0  0  0  0  0  0
    0.1568   -5.0991    0.0000 N   0  0  0  0  0  0  0  0  0  0  0  0
    0.0000   -3.6073    0.0000 C   0  0  0  0  0  0  0  0  0  0  0  0
    1.2135   -2.7256    0.0000 C   0  0  0  0  0  0  0  0  0  0  0  0
    2.5838   -3.3357    0.0000 C   0  0  0  0  0  0  0  0  0  0  0  0
    3.7974   -2.4540    0.0000 O   0  0  0  0  0  0  0  0  0  0  0  0
    2.7406   -4.8275    0.0000 C   0  0  0  0  0  0  0  0  0  0  0  0
    4.1110   -5.4376    0.0000 C   0  0  0  0  0  0  0  0  0  0  0  0
    4.2677   -6.9294    0.0000 C   0  0  0  0  0  0  0  0  0  0  0  0
    3.0542   -7.8111    0.0000 C   0  0  0  0  0  0  0  0  0  0  0  0
    3.2110   -9.3029    0.0000 Cl  0  0  0  0  0  0  0  0  0  0  0  0
    1.6839   -7.2010    0.0000 C   0  0  0  0  0  0  0  0  0  0  0  0
    1.5271   -5.7092    0.0000 C   0  0  0  0  0  0  0  0  0  0  0  0
    0.7500   -1.2990    0.0000 C   0  0  0  0  0  0  0  0  0  0  0  0
    1.5000    0.0000    0.0000 C   0  0  0  0  0  0  0  0  0  0  0  0
    0.7500    1.2990    0.0000 C   0  0  0  0  0  0  0  0  0  0  0  0
   -0.7500    1.2990    0.0000 C   0  0  0  0  0  0  0  0  0  0  0  0
   -1.5000    0.0000    0.0000 C   0  0  0  0  0  0  0  0  0  0  0  0
   -0.7500   -1.2990    0.0000 C   0  0  0  0  0  0  0  0  0  0  0  0
   -1.2135   -2.7256    0.0000 C   0  0  0  0  0  0  0  0  0  0  0  0
   -2.6401   -3.1891    0.0000 O   0  0  0  0  0  0  0  0  0  0  0  0
  1  2  1  0
  2  3  1  0
  3  4  2  0
  4  5  1  0
  5  6  2  0
  5  7  1  0
  7  8  2  0
  8  9  1  0
  9 10  2  0
 10 11  1  0
 10 12  1  0
 12 13  2  0
  4 14  1  0
 14 15  2  0
 15 16  1  0
 16 17  2  0
 17 18  1  0
 18 19  2  0
 19 20  1  0
 20 21  2  0
 13  2  1  0
 19 14  1  0
 20  3  1  0
 13  7  1  0
M  END
>  <Compound_ID>  (608) 
CHEMBL3629604

>  <Molecule Name>  (608) 
nan

>  <Molecular Weight>  (608) 
295.73

>  <AlogP>  (608) 
3.4

>  <Smiles>  (608) 
Cn1c2c(c(=O)c3ccc(Cl)cc31)-c1ccccc1C2=O

>  <Standard Type>  (608) 
IC50

>  <Standard Relation>  (608) 
'='

>  <Standard Units>  (608) 
nM

>  <Standard Value>  (608) 
88500.0

>  <Assay ChEMBL ID>  (608) 
CHEMBL3630034

>  <Assay Description>  (608) 
Inhibition of TrkA (unknown origin) by radiometric analysis in presence of [gamma-33P]-ATP

>  <BAO Format ID>  (608) 
BAO_0000357

>  <BAO Label>  (608) 
single protein format

>  <Assay Organism>  (608) 
Homo sapiens

>  <Target ChEMBL ID>  (608) 
CHEMBL2815

>  <Target Name>  (608) 
Nerve growth factor receptor Trk-A

>  <Target Organism>  (608) 
Homo sapiens

>  <Target Type>  (608) 
SINGLE PROTEIN

>  <Document ChEMBL ID>  (608) 
CHEMBL3627674

>  <Source Description>  (608) 
Scientific Literature

>  <Document Journal>  (608) 
Bioorg Med Chem Lett

>  <Document Year>  (608) 
2015.0

>  <Active>  (608) 
0.0

>  <bits>  (608) 
<rdkit.DataStructs.cDataStructs.ExplicitBitVect object at 0x00000159F540F920>

>  <Group>  (608) 
G2

$$$$

     RDKit          2D

 21 24  0  0  0  0  0  0  0  0999 V2000
    1.6839   -9.7990    0.0000 C   0  0  0  0  0  0  0  0  0  0  0  0
    1.5271   -8.3073    0.0000 C   0  0  0  0  0  0  0  0  0  0  0  0
    2.7406   -7.4256    0.0000 C   0  0  0  0  0  0  0  0  0  0  0  0
    2.5838   -5.9338    0.0000 C   0  0  0  0  0  0  0  0  0  0  0  0
    1.2135   -5.3237    0.0000 C   0  0  0  0  0  0  0  0  0  0  0  0
   -0.0000   -6.2054    0.0000 C   0  0  0  0  0  0  0  0  0  0  0  0
    0.1568   -7.6972    0.0000 C   0  0  0  0  0  0  0  0  0  0  0  0
   -1.2135   -5.3237    0.0000 C   0  0  0  0  0  0  0  0  0  0  0  0
   -2.6401   -5.7872    0.0000 O   0  0  0  0  0  0  0  0  0  0  0  0
   -0.7500   -3.8971    0.0000 C   0  0  0  0  0  0  0  0  0  0  0  0
    0.7500   -3.8971    0.0000 C   0  0  0  0  0  0  0  0  0  0  0  0
    1.5000   -2.5981    0.0000 C   0  0  0  0  0  0  0  0  0  0  0  0
    3.0000   -2.5981    0.0000 O   0  0  0  0  0  0  0  0  0  0  0  0
    0.7500   -1.2990    0.0000 C   0  0  0  0  0  0  0  0  0  0  0  0
    1.5000    0.0000    0.0000 C   0  0  0  0  0  0  0  0  0  0  0  0
    0.7500    1.2990    0.0000 C   0  0  0  0  0  0  0  0  0  0  0  0
   -0.7500    1.2990    0.0000 C   0  0  0  0  0  0  0  0  0  0  0  0
   -1.5000    0.0000    0.0000 C   0  0  0  0  0  0  0  0  0  0  0  0
   -0.7500   -1.2990    0.0000 C   0  0  0  0  0  0  0  0  0  0  0  0
   -1.5000   -2.5981    0.0000 N   0  0  0  0  0  0  0  0  0  0  0  0
   -3.0000   -2.5981    0.0000 C   0  0  0  0  0  0  0  0  0  0  0  0
  1  2  1  0
  2  3  2  0
  3  4  1  0
  4  5  2  0
  5  6  1  0
  6  7  2  0
  6  8  1  0
  8  9  2  0
  8 10  1  0
 10 11  2  0
 11 12  1  0
 12 13  2  0
 12 14  1  0
 14 15  2  0
 15 16  1  0
 16 17  2  0
 17 18  1  0
 18 19  2  0
 19 20  1  0
 20 21  1  0
  7  2  1  0
 20 10  1  0
 11  5  1  0
 19 14  1  0
M  END
>  <Compound_ID>  (609) 
CHEMBL3629608

>  <Molecule Name>  (609) 
nan

>  <Molecular Weight>  (609) 
275.31

>  <AlogP>  (609) 
3.06

>  <Smiles>  (609) 
Cc1ccc2c(c1)C(=O)c1c-2c(=O)c2ccccc2n1C

>  <Standard Type>  (609) 
IC50

>  <Standard Relation>  (609) 
'='

>  <Standard Units>  (609) 
nM

>  <Standard Value>  (609) 
47200.0

>  <Assay ChEMBL ID>  (609) 
CHEMBL3630034

>  <Assay Description>  (609) 
Inhibition of TrkA (unknown origin) by radiometric analysis in presence of [gamma-33P]-ATP

>  <BAO Format ID>  (609) 
BAO_0000357

>  <BAO Label>  (609) 
single protein format

>  <Assay Organism>  (609) 
Homo sapiens

>  <Target ChEMBL ID>  (609) 
CHEMBL2815

>  <Target Name>  (609) 
Nerve growth factor receptor Trk-A

>  <Target Organism>  (609) 
Homo sapiens

>  <Target Type>  (609) 
SINGLE PROTEIN

>  <Document ChEMBL ID>  (609) 
CHEMBL3627674

>  <Source Description>  (609) 
Scientific Literature

>  <Document Journal>  (609) 
Bioorg Med Chem Lett

>  <Document Year>  (609) 
2015.0

>  <Active>  (609) 
0.0

>  <bits>  (609) 
<rdkit.DataStructs.cDataStructs.ExplicitBitVect object at 0x00000159F540D7E0>

>  <Group>  (609) 
G2

$$$$

     RDKit          2D

 26 30  0  0  0  0  0  0  0  0999 V2000
    2.6401   -3.1891    0.0000 O   0  0  0  0  0  0  0  0  0  0  0  0
    1.2135   -2.7256    0.0000 C   0  0  0  0  0  0  0  0  0  0  0  0
    0.7500   -1.2990    0.0000 C   0  0  0  0  0  0  0  0  0  0  0  0
    1.5000    0.0000    0.0000 C   0  0  0  0  0  0  0  0  0  0  0  0
    0.7500    1.2990    0.0000 C   0  0  0  0  0  0  0  0  0  0  0  0
   -0.7500    1.2990    0.0000 C   0  0  0  0  0  0  0  0  0  0  0  0
   -1.5000    0.0000    0.0000 C   0  0  0  0  0  0  0  0  0  0  0  0
   -0.7500   -1.2990    0.0000 C   0  0  0  0  0  0  0  0  0  0  0  0
   -1.2135   -2.7256    0.0000 C   0  0  0  0  0  0  0  0  0  0  0  0
   -0.0000   -3.6073    0.0000 C   0  0  0  0  0  0  0  0  0  0  0  0
   -0.1568   -5.0991    0.0000 N   0  0  0  0  0  0  0  0  0  0  0  0
    1.0567   -5.9808    0.0000 C   0  0  0  0  0  0  0  0  0  0  0  0
    0.8999   -7.4725    0.0000 C   0  0  0  0  0  0  0  0  0  0  0  0
   -0.4704   -8.0826    0.0000 C   0  0  0  0  0  0  0  0  0  0  0  0
   -0.6272   -9.5744    0.0000 C   0  0  0  0  0  0  0  0  0  0  0  0
    0.5864  -10.4561    0.0000 C   0  0  0  0  0  0  0  0  0  0  0  0
    1.9567   -9.8460    0.0000 C   0  0  0  0  0  0  0  0  0  0  0  0
    2.1135   -8.3542    0.0000 C   0  0  0  0  0  0  0  0  0  0  0  0
   -1.5271   -5.7092    0.0000 C   0  0  0  0  0  0  0  0  0  0  0  0
   -1.6839   -7.2010    0.0000 C   0  0  0  0  0  0  0  0  0  0  0  0
   -3.0542   -7.8111    0.0000 C   0  0  0  0  0  0  0  0  0  0  0  0
   -4.2677   -6.9294    0.0000 C   0  0  0  0  0  0  0  0  0  0  0  0
   -4.1110   -5.4376    0.0000 C   0  0  0  0  0  0  0  0  0  0  0  0
   -2.7406   -4.8275    0.0000 C   0  0  0  0  0  0  0  0  0  0  0  0
   -2.5838   -3.3357    0.0000 C   0  0  0  0  0  0  0  0  0  0  0  0
   -3.7974   -2.4540    0.0000 O   0  0  0  0  0  0  0  0  0  0  0  0
  1  2  2  0
  2  3  1  0
  3  4  2  0
  4  5  1  0
  5  6  2  0
  6  7  1  0
  7  8  2  0
  8  9  1  0
  9 10  2  0
 10 11  1  0
 11 12  1  0
 12 13  1  0
 13 14  2  0
 14 15  1  0
 15 16  2  0
 16 17  1  0
 17 18  2  0
 11 19  1  0
 19 20  2  0
 20 21  1  0
 21 22  2  0
 22 23  1  0
 23 24  2  0
 24 25  1  0
 25 26  2  0
 10  2  1  0
 18 13  1  0
 24 19  1  0
  8  3  1  0
 25  9  1  0
M  END
>  <Compound_ID>  (610) 
CHEMBL3629613

>  <Molecule Name>  (610) 
nan

>  <Molecular Weight>  (610) 
337.38

>  <AlogP>  (610) 
4.26

>  <Smiles>  (610) 
O=C1c2ccccc2-c2c1n(Cc1ccccc1)c1ccccc1c2=O

>  <Standard Type>  (610) 
IC50

>  <Standard Relation>  (610) 
'='

>  <Standard Units>  (610) 
nM

>  <Standard Value>  (610) 
10300.0

>  <Assay ChEMBL ID>  (610) 
CHEMBL3630034

>  <Assay Description>  (610) 
Inhibition of TrkA (unknown origin) by radiometric analysis in presence of [gamma-33P]-ATP

>  <BAO Format ID>  (610) 
BAO_0000357

>  <BAO Label>  (610) 
single protein format

>  <Assay Organism>  (610) 
Homo sapiens

>  <Target ChEMBL ID>  (610) 
CHEMBL2815

>  <Target Name>  (610) 
Nerve growth factor receptor Trk-A

>  <Target Organism>  (610) 
Homo sapiens

>  <Target Type>  (610) 
SINGLE PROTEIN

>  <Document ChEMBL ID>  (610) 
CHEMBL3627674

>  <Source Description>  (610) 
Scientific Literature

>  <Document Journal>  (610) 
Bioorg Med Chem Lett

>  <Document Year>  (610) 
2015.0

>  <Active>  (610) 
0.0

>  <bits>  (610) 
<rdkit.DataStructs.cDataStructs.ExplicitBitVect object at 0x00000159F540D4D0>

>  <Group>  (610) 
G2

$$$$

     RDKit          2D

 34 38  0  0  0  0  0  0  0  0999 V2000
   -5.4853   -5.8293    0.0000 C   0  0  0  0  0  0  0  0  0  0  0  0
   -4.6036   -4.6157    0.0000 C   0  0  0  0  0  0  0  0  0  0  0  0
   -3.1036   -4.6157    0.0000 C   0  0  0  0  0  0  0  0  0  0  0  0
   -2.6401   -3.1891    0.0000 C   0  0  0  0  0  0  0  0  0  0  0  0
   -1.2135   -2.7256    0.0000 N   0  0  0  0  0  0  0  0  0  0  0  0
   -0.0000   -3.6073    0.0000 C   0  0  0  0  0  0  0  0  0  0  0  0
    1.2135   -2.7256    0.0000 C   0  0  0  0  0  0  0  0  0  0  0  0
    2.6401   -3.1891    0.0000 C   0  0  0  0  0  0  0  0  0  0  0  0
    3.7548   -2.1855    0.0000 O   0  0  0  0  0  0  0  0  0  0  0  0
    2.9520   -4.6564    0.0000 N   0  0  0  0  0  0  0  0  0  0  0  0
    1.8373   -5.6601    0.0000 C   0  0  0  0  0  0  0  0  0  0  0  0
    2.1491   -7.1273    0.0000 C   0  0  0  0  0  0  0  0  0  0  0  0
    3.5757   -7.5908    0.0000 O   0  0  0  0  0  0  0  0  0  0  0  0
    4.6904   -6.5871    0.0000 C   0  0  0  0  0  0  0  0  0  0  0  0
    6.1170   -7.0506    0.0000 C   0  0  0  0  0  0  0  0  0  0  0  0
    4.3786   -5.1199    0.0000 C   0  0  0  0  0  0  0  0  0  0  0  0
    0.7500   -1.2990    0.0000 C   0  0  0  0  0  0  0  0  0  0  0  0
    1.5000    0.0000    0.0000 C   0  0  0  0  0  0  0  0  0  0  0  0
    0.7500    1.2990    0.0000 C   0  0  0  0  0  0  0  0  0  0  0  0
   -0.7500    1.2990    0.0000 C   0  0  0  0  0  0  0  0  0  0  0  0
   -1.5000    2.5981    0.0000 O   0  0  0  0  0  0  0  0  0  0  0  0
   -0.7500    3.8971    0.0000 C   0  0  0  0  0  0  0  0  0  0  0  0
   -1.5000    5.1962    0.0000 C   0  0  0  0  0  0  0  0  0  0  0  0
    0.7500    3.8971    0.0000 C   0  0  0  0  0  0  0  0  0  0  0  0
    1.5000    2.5981    0.0000 C   0  0  0  0  0  0  0  0  0  0  0  0
    3.0000    2.5981    0.0000 C   0  0  0  0  0  0  0  0  0  0  0  0
    3.7500    3.8971    0.0000 C   0  0  0  0  0  0  0  0  0  0  0  0
    5.2500    3.8971    0.0000 F   0  0  0  0  0  0  0  0  0  0  0  0
    3.0000    5.1962    0.0000 C   0  0  0  0  0  0  0  0  0  0  0  0
    1.5000    5.1962    0.0000 N   0  0  0  0  0  0  0  0  0  0  0  0
   -1.5000    0.0000    0.0000 N   0  0  0  0  0  0  0  0  0  0  0  0
   -0.7500   -1.2990    0.0000 C   0  0  0  0  0  0  0  0  0  0  0  0
   -3.8536   -2.3075    0.0000 N   0  0  0  0  0  0  0  0  0  0  0  0
   -5.0672   -3.1891    0.0000 N   0  0  0  0  0  0  0  0  0  0  0  0
  1  2  1  0
  2  3  2  0
  3  4  1  0
  4  5  1  0
  5  6  1  0
  6  7  2  0
  7  8  1  0
  8  9  2  0
  8 10  1  0
 10 11  1  0
 11 12  1  0
 12 13  1  0
 13 14  1  0
 14 15  1  6
 14 16  1  0
  7 17  1  0
 17 18  2  0
 18 19  1  0
 19 20  2  0
 20 21  1  0
 21 22  1  0
 22 23  1  1
 22 24  1  0
 24 25  2  0
 25 26  1  0
 26 27  2  0
 27 28  1  0
 27 29  1  0
 29 30  2  0
 20 31  1  0
 31 32  2  0
  4 33  2  0
 33 34  1  0
 34  2  1  0
 32  5  1  0
 16 10  1  0
 32 17  1  0
 30 24  1  0
M  END
>  <Compound_ID>  (611) 
CHEMBL4440381

>  <Molecule Name>  (611) 
nan

>  <Molecular Weight>  (611) 
464.5

>  <AlogP>  (611) 
3.59

>  <Smiles>  (611) 
Cc1cc(-n2cc(C(=O)N3CCO[C@@H](C)C3)c3ccc(O[C@@H](C)c4ccc(F)cn4)nc32)n[nH]1

>  <Standard Type>  (611) 
Inhibition

>  <Standard Relation>  (611) 
'='

>  <Standard Units>  (611) 
%

>  <Standard Value>  (611) 
9.0

>  <Assay ChEMBL ID>  (611) 
CHEMBL4397155

>  <Assay Description>  (611) 
Inhibition of TRKA (unknown origin) at 100 nM by [gamma-33P]ATP-based radiometric or Alphascreen assay relative to control

>  <BAO Format ID>  (611) 
BAO_0000357

>  <BAO Label>  (611) 
single protein format

>  <Assay Organism>  (611) 
Homo sapiens

>  <Target ChEMBL ID>  (611) 
CHEMBL2815

>  <Target Name>  (611) 
Nerve growth factor receptor Trk-A

>  <Target Organism>  (611) 
Homo sapiens

>  <Target Type>  (611) 
SINGLE PROTEIN

>  <Document ChEMBL ID>  (611) 
CHEMBL4396868

>  <Source Description>  (611) 
Scientific Literature

>  <Document Journal>  (611) 
J Med Chem

>  <Document Year>  (611) 
2019.0

>  <Active>  (611) 
0.0

>  <bits>  (611) 
<rdkit.DataStructs.cDataStructs.ExplicitBitVect object at 0x00000159F540D620>

>  <Group>  (611) 
G2

$$$$

     RDKit          2D

 32 35  0  0  0  0  0  0  0  0999 V2000
    9.0985   -9.6461    0.0000 C   0  0  0  0  0  0  0  0  0  0  0  0
    7.7282   -9.0360    0.0000 S   0  0  0  0  0  0  0  0  0  0  0  0
    8.3383   -7.6657    0.0000 O   0  0  0  0  0  0  0  0  0  0  0  0
    7.1181  -10.4063    0.0000 O   0  0  0  0  0  0  0  0  0  0  0  0
    6.3579   -8.4259    0.0000 C   0  0  0  0  0  0  0  0  0  0  0  0
    6.2011   -6.9341    0.0000 C   0  0  0  0  0  0  0  0  0  0  0  0
    4.8308   -6.3240    0.0000 N   0  0  0  0  0  0  0  0  0  0  0  0
    4.6740   -4.8322    0.0000 C   0  0  0  0  0  0  0  0  0  0  0  0
    3.3037   -4.2221    0.0000 C   0  0  0  0  0  0  0  0  0  0  0  0
    2.9918   -2.7549    0.0000 N   0  0  0  0  0  0  0  0  0  0  0  0
    1.5000   -2.5981    0.0000 C   0  0  0  0  0  0  0  0  0  0  0  0
    0.7500   -1.2990    0.0000 C   0  0  0  0  0  0  0  0  0  0  0  0
    1.5000    0.0000    0.0000 C   0  0  0  0  0  0  0  0  0  0  0  0
    0.7500    1.2990    0.0000 C   0  0  0  0  0  0  0  0  0  0  0  0
   -0.7500    1.2990    0.0000 C   0  0  0  0  0  0  0  0  0  0  0  0
   -1.5000    2.5981    0.0000 N   0  0  0  0  0  0  0  0  0  0  0  0
   -3.0000    2.5981    0.0000 C   0  0  0  0  0  0  0  0  0  0  0  0
   -3.7500    1.2990    0.0000 N   0  0  0  0  0  0  0  0  0  0  0  0
   -3.0000    0.0000    0.0000 C   0  0  0  0  0  0  0  0  0  0  0  0
   -3.7500   -1.2990    0.0000 N   0  0  0  0  0  0  0  0  0  0  0  0
   -5.2500   -1.2990    0.0000 C   0  0  0  0  0  0  0  0  0  0  0  0
   -6.0000    0.0000    0.0000 C   0  0  0  0  0  0  0  0  0  0  0  0
   -7.5000    0.0000    0.0000 C   0  0  0  0  0  0  0  0  0  0  0  0
   -8.2500   -1.2990    0.0000 C   0  0  0  0  0  0  0  0  0  0  0  0
   -9.7500   -1.2990    0.0000 F   0  0  0  0  0  0  0  0  0  0  0  0
   -7.5000   -2.5981    0.0000 C   0  0  0  0  0  0  0  0  0  0  0  0
   -8.2500   -3.8971    0.0000 Cl  0  0  0  0  0  0  0  0  0  0  0  0
   -6.0000   -2.5981    0.0000 C   0  0  0  0  0  0  0  0  0  0  0  0
   -1.5000    0.0000    0.0000 C   0  0  0  0  0  0  0  0  0  0  0  0
   -0.7500   -1.2990    0.0000 C   0  0  0  0  0  0  0  0  0  0  0  0
    0.8899   -3.9684    0.0000 C   0  0  0  0  0  0  0  0  0  0  0  0
    2.0046   -4.9721    0.0000 S   0  0  0  0  0  0  0  0  0  0  0  0
  1  2  1  0
  2  3  2  0
  2  4  2  0
  2  5  1  0
  5  6  1  0
  6  7  1  0
  7  8  1  0
  8  9  1  0
  9 10  2  0
 10 11  1  0
 11 12  1  0
 12 13  2  0
 13 14  1  0
 14 15  2  0
 15 16  1  0
 16 17  2  0
 17 18  1  0
 18 19  2  0
 19 20  1  0
 20 21  1  0
 21 22  2  0
 22 23  1  0
 23 24  2  0
 24 25  1  0
 24 26  1  0
 26 27  1  0
 26 28  2  0
 19 29  1  0
 29 30  2  0
 11 31  2  0
 31 32  1  0
 32  9  1  0
 30 12  1  0
 29 15  1  0
 28 21  1  0
M  END
>  <Compound_ID>  (612) 
CHEMBL1909355

>  <Molecule Name>  (612) 
GW461104A

>  <Molecular Weight>  (612) 
528.46

>  <AlogP>  (612) 
4.42

>  <Smiles>  (612) 
CS(=O)(=O)CCNCc1nc(-c2ccc3ncnc(Nc4ccc(F)c(Cl)c4)c3c2)cs1

>  <Standard Type>  (612) 
Inhibition

>  <Standard Relation>  (612) 
'='

>  <Standard Units>  (612) 
%

>  <Standard Value>  (612) 
3.85

>  <Assay ChEMBL ID>  (612) 
CHEMBL1962184

>  <Assay Description>  (612) 
GSK_PKIS: TRKA mean inhibition at 0.1 uM [Nanosyn]

>  <BAO Format ID>  (612) 
BAO_0000357

>  <BAO Label>  (612) 
single protein format

>  <Assay Organism>  (612) 
None

>  <Target ChEMBL ID>  (612) 
CHEMBL2815

>  <Target Name>  (612) 
Nerve growth factor receptor Trk-A

>  <Target Organism>  (612) 
Homo sapiens

>  <Target Type>  (612) 
SINGLE PROTEIN

>  <Document ChEMBL ID>  (612) 
CHEMBL1961873

>  <Source Description>  (612) 
GSK Published Kinase Inhibitor Set

>  <Document Journal>  (612) 
nan

>  <Document Year>  (612) 
nan

>  <Active>  (612) 
0.0

>  <bits>  (612) 
<rdkit.DataStructs.cDataStructs.ExplicitBitVect object at 0x00000159F540D310>

>  <Group>  (612) 
G2

$$$$

     RDKit          2D

 20 22  0  0  0  0  0  0  0  0999 V2000
    3.7500   -1.2990    0.0000 C   0  0  0  0  0  0  0  0  0  0  0  0
    3.0000    0.0000    0.0000 O   0  0  0  0  0  0  0  0  0  0  0  0
    1.5000    0.0000    0.0000 C   0  0  0  0  0  0  0  0  0  0  0  0
    0.7500   -1.2990    0.0000 C   0  0  0  0  0  0  0  0  0  0  0  0
   -0.7500   -1.2990    0.0000 C   0  0  0  0  0  0  0  0  0  0  0  0
   -1.5000    0.0000    0.0000 C   0  0  0  0  0  0  0  0  0  0  0  0
   -0.7500    1.2990    0.0000 C   0  0  0  0  0  0  0  0  0  0  0  0
    0.7500    1.2990    0.0000 C   0  0  0  0  0  0  0  0  0  0  0  0
    1.5000    2.5981    0.0000 N   0  0  0  0  0  0  0  0  0  0  0  0
    3.0000    2.5981    0.0000 C   0  0  0  0  0  0  0  0  0  0  0  0
    3.8817    3.8116    0.0000 N   0  0  0  0  0  0  0  0  0  0  0  0
    5.3083    3.3481    0.0000 C   0  0  0  0  0  0  0  0  0  0  0  0
    5.3083    1.8481    0.0000 C   0  0  0  0  0  0  0  0  0  0  0  0
    6.5218    0.9664    0.0000 C   0  0  0  0  0  0  0  0  0  0  0  0
    6.3650   -0.5254    0.0000 C   0  0  0  0  0  0  0  0  0  0  0  0
    7.5785   -1.4071    0.0000 C   0  0  0  0  0  0  0  0  0  0  0  0
    8.9488   -0.7970    0.0000 C   0  0  0  0  0  0  0  0  0  0  0  0
    9.1056    0.6948    0.0000 C   0  0  0  0  0  0  0  0  0  0  0  0
    7.8921    1.5765    0.0000 C   0  0  0  0  0  0  0  0  0  0  0  0
    3.8817    1.3846    0.0000 O   0  0  0  0  0  0  0  0  0  0  0  0
  1  2  1  0
  2  3  1  0
  3  4  2  0
  4  5  1  0
  5  6  2  0
  6  7  1  0
  7  8  2  0
  8  9  1  0
  9 10  1  0
 10 11  2  0
 11 12  1  0
 12 13  2  0
 13 14  1  0
 14 15  2  0
 15 16  1  0
 16 17  2  0
 17 18  1  0
 18 19  2  0
 13 20  1  0
  8  3  1  0
 20 10  1  0
 19 14  1  0
M  END
>  <Compound_ID>  (613) 
CHEMBL1794062

>  <Molecule Name>  (613) 
GW577921A

>  <Molecular Weight>  (613) 
302.76

>  <AlogP>  (613) 
4.09

>  <Smiles>  (613) 
COc1ccccc1Nc1ncc(-c2ccccc2)o1

>  <Standard Type>  (613) 
Inhibition

>  <Standard Relation>  (613) 
'='

>  <Standard Units>  (613) 
%

>  <Standard Value>  (613) 
1.73

>  <Assay ChEMBL ID>  (613) 
CHEMBL1962184

>  <Assay Description>  (613) 
GSK_PKIS: TRKA mean inhibition at 0.1 uM [Nanosyn]

>  <BAO Format ID>  (613) 
BAO_0000357

>  <BAO Label>  (613) 
single protein format

>  <Assay Organism>  (613) 
None

>  <Target ChEMBL ID>  (613) 
CHEMBL2815

>  <Target Name>  (613) 
Nerve growth factor receptor Trk-A

>  <Target Organism>  (613) 
Homo sapiens

>  <Target Type>  (613) 
SINGLE PROTEIN

>  <Document ChEMBL ID>  (613) 
CHEMBL1961873

>  <Source Description>  (613) 
GSK Published Kinase Inhibitor Set

>  <Document Journal>  (613) 
nan

>  <Document Year>  (613) 
nan

>  <Active>  (613) 
0.0

>  <bits>  (613) 
<rdkit.DataStructs.cDataStructs.ExplicitBitVect object at 0x00000159F540D2A0>

>  <Group>  (613) 
G2

$$$$

     RDKit          2D

 36 40  0  0  0  0  0  0  0  0999 V2000
   -4.4228   16.0390    0.0000 C   0  0  0  0  0  0  0  0  0  0  0  0
   -3.3081   15.0353    0.0000 C   0  0  0  0  0  0  0  0  0  0  0  0
   -3.6200   13.5681    0.0000 C   0  0  0  0  0  0  0  0  0  0  0  0
   -2.5052   12.5644    0.0000 N   0  0  0  0  0  0  0  0  0  0  0  0
   -1.0786   13.0279    0.0000 C   0  0  0  0  0  0  0  0  0  0  0  0
    0.0361   12.0242    0.0000 C   0  0  0  0  0  0  0  0  0  0  0  0
   -0.2758   10.5570    0.0000 C   0  0  0  0  0  0  0  0  0  0  0  0
   -1.7024   10.0935    0.0000 C   0  0  0  0  0  0  0  0  0  0  0  0
   -2.0143    8.6263    0.0000 C   0  0  0  0  0  0  0  0  0  0  0  0
   -3.4408    8.1628    0.0000 C   0  0  0  0  0  0  0  0  0  0  0  0
   -3.7527    6.6955    0.0000 C   0  0  0  0  0  0  0  0  0  0  0  0
   -2.6380    5.6918    0.0000 C   0  0  0  0  0  0  0  0  0  0  0  0
   -2.9499    4.2246    0.0000 N   0  0  0  0  0  0  0  0  0  0  0  0
   -1.8351    3.2209    0.0000 C   0  0  0  0  0  0  0  0  0  0  0  0
   -0.4086    3.6844    0.0000 N   0  0  0  0  0  0  0  0  0  0  0  0
    0.7062    2.6807    0.0000 C   0  0  0  0  0  0  0  0  0  0  0  0
    2.1328    3.1443    0.0000 N   0  0  0  0  0  0  0  0  0  0  0  0
    2.4446    4.6115    0.0000 C   0  0  0  0  0  0  0  0  0  0  0  0
    1.3299    5.6152    0.0000 C   0  0  0  0  0  0  0  0  0  0  0  0
    1.6418    7.0824    0.0000 C   0  0  0  0  0  0  0  0  0  0  0  0
    3.0684    7.5459    0.0000 C   0  0  0  0  0  0  0  0  0  0  0  0
    4.1831    6.5422    0.0000 C   0  0  0  0  0  0  0  0  0  0  0  0
    3.8712    5.0750    0.0000 C   0  0  0  0  0  0  0  0  0  0  0  0
    4.9859    4.0713    0.0000 C   0  0  0  0  0  0  0  0  0  0  0  0
    6.4125    4.5348    0.0000 N   0  0  0  0  0  0  0  0  0  0  0  0
    4.6741    2.6041    0.0000 O   0  0  0  0  0  0  0  0  0  0  0  0
    0.3943    1.2135    0.0000 C   0  0  0  0  0  0  0  0  0  0  0  0
    1.2760    0.0000    0.0000 C   0  0  0  0  0  0  0  0  0  0  0  0
    0.3943   -1.2135    0.0000 C   0  0  0  0  0  0  0  0  0  0  0  0
   -1.0323   -0.7500    0.0000 N   0  0  0  0  0  0  0  0  0  0  0  0
   -1.0323    0.7500    0.0000 C   0  0  0  0  0  0  0  0  0  0  0  0
   -2.1470    1.7537    0.0000 N   0  0  0  0  0  0  0  0  0  0  0  0
   -1.2114    6.1554    0.0000 C   0  0  0  0  0  0  0  0  0  0  0  0
   -0.0967    5.1517    0.0000 C   0  0  0  0  0  0  0  0  0  0  0  0
   -0.8995    7.6226    0.0000 C   0  0  0  0  0  0  0  0  0  0  0  0
   -2.8171   11.0972    0.0000 C   0  0  0  0  0  0  0  0  0  0  0  0
  1  2  1  0
  2  3  1  0
  3  4  1  0
  4  5  1  0
  5  6  1  0
  6  7  1  0
  7  8  2  0
  8  9  1  0
  9 10  2  0
 10 11  1  0
 11 12  2  0
 12 13  1  0
 13 14  1  0
 14 15  2  0
 15 16  1  0
 16 17  1  0
 17 18  1  0
 18 19  2  0
 19 20  1  0
 20 21  2  0
 21 22  1  0
 22 23  2  0
 23 24  1  0
 24 25  1  0
 24 26  2  0
 16 27  2  0
 27 28  1  0
 28 29  2  0
 29 30  1  0
 30 31  1  0
 31 32  2  0
 12 33  1  0
 33 34  1  0
 33 35  2  0
  8 36  1  0
 36  4  1  0
 35  9  1  0
 32 14  1  0
 23 18  1  0
 31 27  1  0
M  END
>  <Compound_ID>  (614) 
CHEMBL513897

>  <Molecule Name>  (614) 
GSK-994854A

>  <Molecular Weight>  (614) 
481.6

>  <AlogP>  (614) 
5.35

>  <Smiles>  (614) 
CCCN1CCC=C(c2ccc(Nc3nc(Nc4ccccc4C(N)=O)c4cc[nH]c4n3)c(C)c2)C1

>  <Standard Type>  (614) 
Inhibition

>  <Standard Relation>  (614) 
'='

>  <Standard Units>  (614) 
%

>  <Standard Value>  (614) 
6.59

>  <Assay ChEMBL ID>  (614) 
CHEMBL1962185

>  <Assay Description>  (614) 
GSK_PKIS: TRKA mean inhibition at 1 uM [Nanosyn]

>  <BAO Format ID>  (614) 
BAO_0000357

>  <BAO Label>  (614) 
single protein format

>  <Assay Organism>  (614) 
None

>  <Target ChEMBL ID>  (614) 
CHEMBL2815

>  <Target Name>  (614) 
Nerve growth factor receptor Trk-A

>  <Target Organism>  (614) 
Homo sapiens

>  <Target Type>  (614) 
SINGLE PROTEIN

>  <Document ChEMBL ID>  (614) 
CHEMBL1961873

>  <Source Description>  (614) 
GSK Published Kinase Inhibitor Set

>  <Document Journal>  (614) 
nan

>  <Document Year>  (614) 
nan

>  <Active>  (614) 
0.0

>  <bits>  (614) 
<rdkit.DataStructs.cDataStructs.ExplicitBitVect object at 0x00000159F540E2D0>

>  <Group>  (614) 
G2

$$$$

     RDKit          2D

 30 33  0  0  0  0  0  0  0  0999 V2000
   -3.7500    1.2990    0.0000 C   0  0  0  0  0  0  0  0  0  0  0  0
   -3.0000    0.0000    0.0000 O   0  0  0  0  0  0  0  0  0  0  0  0
   -3.7500   -1.2990    0.0000 C   0  0  0  0  0  0  0  0  0  0  0  0
   -3.0000   -2.5981    0.0000 C   0  0  0  0  0  0  0  0  0  0  0  0
   -3.7500   -3.8971    0.0000 C   0  0  0  0  0  0  0  0  0  0  0  0
   -3.0000   -5.1962    0.0000 N   0  0  0  0  0  0  0  0  0  0  0  0
   -1.5000   -5.1962    0.0000 C   0  0  0  0  0  0  0  0  0  0  0  0
   -0.7500   -6.4952    0.0000 N   0  0  0  0  0  0  0  0  0  0  0  0
    0.7500   -6.4952    0.0000 C   0  0  0  0  0  0  0  0  0  0  0  0
    1.5000   -5.1962    0.0000 C   0  0  0  0  0  0  0  0  0  0  0  0
    0.7500   -3.8971    0.0000 C   0  0  0  0  0  0  0  0  0  0  0  0
    1.5000   -2.5981    0.0000 N   0  0  0  0  0  0  0  0  0  0  0  0
    0.7500   -1.2990    0.0000 C   0  0  0  0  0  0  0  0  0  0  0  0
   -0.7500   -1.2990    0.0000 C   0  0  0  0  0  0  0  0  0  0  0  0
   -1.5000   -0.0000    0.0000 C   0  0  0  0  0  0  0  0  0  0  0  0
   -0.7500    1.2990    0.0000 C   0  0  0  0  0  0  0  0  0  0  0  0
   -1.2135    2.7256    0.0000 C   0  0  0  0  0  0  0  0  0  0  0  0
   -2.6401    3.1891    0.0000 C   0  0  0  0  0  0  0  0  0  0  0  0
   -0.0000    3.6073    0.0000 N   0  0  0  0  0  0  0  0  0  0  0  0
    1.2135    2.7256    0.0000 N   0  0  0  0  0  0  0  0  0  0  0  0
    0.7500    1.2990    0.0000 C   0  0  0  0  0  0  0  0  0  0  0  0
    1.5000   -0.0000    0.0000 C   0  0  0  0  0  0  0  0  0  0  0  0
   -0.7500   -3.8971    0.0000 N   0  0  0  0  0  0  0  0  0  0  0  0
   -5.2500   -3.8971    0.0000 C   0  0  0  0  0  0  0  0  0  0  0  0
   -6.0000   -2.5981    0.0000 C   0  0  0  0  0  0  0  0  0  0  0  0
   -7.5000   -2.5981    0.0000 O   0  0  0  0  0  0  0  0  0  0  0  0
   -8.2500   -1.2990    0.0000 C   0  0  0  0  0  0  0  0  0  0  0  0
   -5.2500   -1.2990    0.0000 C   0  0  0  0  0  0  0  0  0  0  0  0
   -6.0000    0.0000    0.0000 O   0  0  0  0  0  0  0  0  0  0  0  0
   -7.5000    0.0000    0.0000 C   0  0  0  0  0  0  0  0  0  0  0  0
  1  2  1  0
  2  3  1  0
  3  4  2  0
  4  5  1  0
  5  6  1  0
  6  7  1  0
  7  8  2  0
  8  9  1  0
  9 10  2  0
 10 11  1  0
 11 12  1  0
 12 13  1  0
 13 14  2  0
 14 15  1  0
 15 16  2  0
 16 17  1  0
 17 18  1  0
 17 19  2  0
 19 20  1  0
 20 21  1  0
 21 22  2  0
 11 23  2  0
  5 24  2  0
 24 25  1  0
 25 26  1  0
 26 27  1  0
 25 28  2  0
 28 29  1  0
 29 30  1  0
 28  3  1  0
 23  7  1  0
 22 13  1  0
 21 16  1  0
M  END
>  <Compound_ID>  (615) 
CHEMBL479079

>  <Molecule Name>  (615) 
GW612286X

>  <Molecular Weight>  (615) 
406.45

>  <AlogP>  (615) 
4.17

>  <Smiles>  (615) 
COc1cc(Nc2nccc(Nc3ccc4c(C)n[nH]c4c3)n2)cc(OC)c1OC

>  <Standard Type>  (615) 
Inhibition

>  <Standard Relation>  (615) 
'='

>  <Standard Units>  (615) 
%

>  <Standard Value>  (615) 
12.22

>  <Assay ChEMBL ID>  (615) 
CHEMBL1962184

>  <Assay Description>  (615) 
GSK_PKIS: TRKA mean inhibition at 0.1 uM [Nanosyn]

>  <BAO Format ID>  (615) 
BAO_0000357

>  <BAO Label>  (615) 
single protein format

>  <Assay Organism>  (615) 
None

>  <Target ChEMBL ID>  (615) 
CHEMBL2815

>  <Target Name>  (615) 
Nerve growth factor receptor Trk-A

>  <Target Organism>  (615) 
Homo sapiens

>  <Target Type>  (615) 
SINGLE PROTEIN

>  <Document ChEMBL ID>  (615) 
CHEMBL1961873

>  <Source Description>  (615) 
GSK Published Kinase Inhibitor Set

>  <Document Journal>  (615) 
nan

>  <Document Year>  (615) 
nan

>  <Active>  (615) 
0.0

>  <bits>  (615) 
<rdkit.DataStructs.cDataStructs.ExplicitBitVect object at 0x00000159F540CF90>

>  <Group>  (615) 
G2

$$$$

     RDKit          2D

 42 46  0  0  0  0  0  0  0  0999 V2000
   -2.5981  -14.1073    0.0000 C   0  0  0  0  0  0  0  0  0  0  0  0
   -2.5981  -12.6073    0.0000 N   0  0  0  0  0  0  0  0  0  0  0  0
   -3.8971  -11.8573    0.0000 C   0  0  0  0  0  0  0  0  0  0  0  0
   -3.8971  -10.3573    0.0000 C   0  0  0  0  0  0  0  0  0  0  0  0
   -2.5981   -9.6073    0.0000 N   0  0  0  0  0  0  0  0  0  0  0  0
   -2.5981   -8.1073    0.0000 C   0  0  0  0  0  0  0  0  0  0  0  0
   -1.2990   -7.3573    0.0000 C   0  0  0  0  0  0  0  0  0  0  0  0
   -1.2990   -5.8573    0.0000 C   0  0  0  0  0  0  0  0  0  0  0  0
   -0.0000   -5.1073    0.0000 N   0  0  0  0  0  0  0  0  0  0  0  0
   -0.0000   -3.6073    0.0000 C   0  0  0  0  0  0  0  0  0  0  0  0
    1.2135   -2.7256    0.0000 N   0  0  0  0  0  0  0  0  0  0  0  0
    0.7500   -1.2990    0.0000 C   0  0  0  0  0  0  0  0  0  0  0  0
    1.5000    0.0000    0.0000 C   0  0  0  0  0  0  0  0  0  0  0  0
    0.7500    1.2990    0.0000 C   0  0  0  0  0  0  0  0  0  0  0  0
   -0.7500    1.2990    0.0000 C   0  0  0  0  0  0  0  0  0  0  0  0
   -1.5000    2.5981    0.0000 O   0  0  0  0  0  0  0  0  0  0  0  0
   -0.7500    3.8971    0.0000 C   0  0  0  0  0  0  0  0  0  0  0  0
    0.7500    3.8971    0.0000 C   0  0  0  0  0  0  0  0  0  0  0  0
    1.5000    5.1962    0.0000 C   0  0  0  0  0  0  0  0  0  0  0  0
    0.7500    6.4952    0.0000 C   0  0  0  0  0  0  0  0  0  0  0  0
    1.5000    7.7942    0.0000 N   0  0  0  0  0  0  0  0  0  0  0  0
    3.0000    7.7942    0.0000 C   0  0  0  0  0  0  0  0  0  0  0  0
    3.7500    6.4952    0.0000 O   0  0  0  0  0  0  0  0  0  0  0  0
    3.7500    9.0933    0.0000 N   0  0  0  0  0  0  0  0  0  0  0  0
    5.2500    9.0933    0.0000 C   0  0  0  0  0  0  0  0  0  0  0  0
    6.0000    7.7942    0.0000 C   0  0  0  0  0  0  0  0  0  0  0  0
    7.5000    7.7942    0.0000 C   0  0  0  0  0  0  0  0  0  0  0  0
    8.2500    6.4952    0.0000 C   0  0  0  0  0  0  0  0  0  0  0  0
    9.0000    5.1962    0.0000 F   0  0  0  0  0  0  0  0  0  0  0  0
    6.9510    5.7452    0.0000 F   0  0  0  0  0  0  0  0  0  0  0  0
    9.5490    7.2452    0.0000 F   0  0  0  0  0  0  0  0  0  0  0  0
    8.2500    9.0933    0.0000 C   0  0  0  0  0  0  0  0  0  0  0  0
    7.5000   10.3923    0.0000 C   0  0  0  0  0  0  0  0  0  0  0  0
    6.0000   10.3923    0.0000 C   0  0  0  0  0  0  0  0  0  0  0  0
    5.2500   11.6913    0.0000 F   0  0  0  0  0  0  0  0  0  0  0  0
   -0.7500    6.4952    0.0000 C   0  0  0  0  0  0  0  0  0  0  0  0
   -1.5000    5.1962    0.0000 C   0  0  0  0  0  0  0  0  0  0  0  0
   -1.5000    0.0000    0.0000 C   0  0  0  0  0  0  0  0  0  0  0  0
   -0.7500   -1.2990    0.0000 C   0  0  0  0  0  0  0  0  0  0  0  0
   -1.2135   -2.7256    0.0000 N   0  0  0  0  0  0  0  0  0  0  0  0
   -1.2990  -10.3573    0.0000 C   0  0  0  0  0  0  0  0  0  0  0  0
   -1.2990  -11.8573    0.0000 C   0  0  0  0  0  0  0  0  0  0  0  0
  1  2  1  0
  2  3  1  0
  3  4  1  0
  4  5  1  0
  5  6  1  0
  6  7  1  0
  7  8  1  0
  8  9  1  0
  9 10  1  0
 10 11  2  0
 11 12  1  0
 12 13  2  0
 13 14  1  0
 14 15  2  0
 15 16  1  0
 16 17  1  0
 17 18  2  0
 18 19  1  0
 19 20  2  0
 20 21  1  0
 21 22  1  0
 22 23  2  0
 22 24  1  0
 24 25  1  0
 25 26  2  0
 26 27  1  0
 27 28  1  0
 28 29  1  0
 28 30  1  0
 28 31  1  0
 27 32  2  0
 32 33  1  0
 33 34  2  0
 34 35  1  0
 20 36  1  0
 36 37  2  0
 15 38  1  0
 38 39  2  0
 39 40  1  0
  5 41  1  0
 41 42  1  0
 42  2  1  0
 40 10  1  0
 39 12  1  0
 37 17  1  0
 34 25  1  0
M  END
>  <Compound_ID>  (616) 
CHEMBL1909372

>  <Molecule Name>  (616) 
GW700494A

>  <Molecular Weight>  (616) 
622.07

>  <AlogP>  (616) 
6.21

>  <Smiles>  (616) 
CN1CCN(CCCNc2nc3ccc(Oc4ccc(NC(=O)Nc5cc(C(F)(F)F)ccc5F)cc4)cc3[nH]2)CC1

>  <Standard Type>  (616) 
Inhibition

>  <Standard Relation>  (616) 
'='

>  <Standard Units>  (616) 
%

>  <Standard Value>  (616) 
2.88

>  <Assay ChEMBL ID>  (616) 
CHEMBL1962184

>  <Assay Description>  (616) 
GSK_PKIS: TRKA mean inhibition at 0.1 uM [Nanosyn]

>  <BAO Format ID>  (616) 
BAO_0000357

>  <BAO Label>  (616) 
single protein format

>  <Assay Organism>  (616) 
None

>  <Target ChEMBL ID>  (616) 
CHEMBL2815

>  <Target Name>  (616) 
Nerve growth factor receptor Trk-A

>  <Target Organism>  (616) 
Homo sapiens

>  <Target Type>  (616) 
SINGLE PROTEIN

>  <Document ChEMBL ID>  (616) 
CHEMBL1961873

>  <Source Description>  (616) 
GSK Published Kinase Inhibitor Set

>  <Document Journal>  (616) 
nan

>  <Document Year>  (616) 
nan

>  <Active>  (616) 
0.0

>  <bits>  (616) 
<rdkit.DataStructs.cDataStructs.ExplicitBitVect object at 0x00000159F540CF20>

>  <Group>  (616) 
G2

$$$$

     RDKit          2D

 39 44  0  0  0  0  0  0  0  0999 V2000
   -0.8087  -14.1104    0.0000 C   0  0  0  0  0  0  0  0  0  0  0  0
   -0.1986  -12.7400    0.0000 N   0  0  0  0  0  0  0  0  0  0  0  0
   -1.0803  -11.5265    0.0000 C   0  0  0  0  0  0  0  0  0  0  0  0
   -0.4702  -10.1562    0.0000 C   0  0  0  0  0  0  0  0  0  0  0  0
    1.0216   -9.9994    0.0000 N   0  0  0  0  0  0  0  0  0  0  0  0
    1.6317   -8.6291    0.0000 C   0  0  0  0  0  0  0  0  0  0  0  0
    0.7500   -7.4156    0.0000 C   0  0  0  0  0  0  0  0  0  0  0  0
   -0.7500   -7.4156    0.0000 C   0  0  0  0  0  0  0  0  0  0  0  0
   -1.2135   -5.9890    0.0000 C   0  0  0  0  0  0  0  0  0  0  0  0
   -0.0000   -5.1073    0.0000 C   0  0  0  0  0  0  0  0  0  0  0  0
   -0.0000   -3.6073    0.0000 C   0  0  0  0  0  0  0  0  0  0  0  0
    1.2135   -2.7256    0.0000 C   0  0  0  0  0  0  0  0  0  0  0  0
    0.7500   -1.2990    0.0000 C   0  0  0  0  0  0  0  0  0  0  0  0
    1.5000    0.0000    0.0000 N   0  0  0  0  0  0  0  0  0  0  0  0
    0.7500    1.2990    0.0000 C   0  0  0  0  0  0  0  0  0  0  0  0
   -0.7500    1.2990    0.0000 N   0  0  0  0  0  0  0  0  0  0  0  0
   -1.5000    0.0000    0.0000 C   0  0  0  0  0  0  0  0  0  0  0  0
   -3.0000    0.0000    0.0000 N   0  0  0  0  0  0  0  0  0  0  0  0
   -3.7500    1.2990    0.0000 C   0  0  0  0  0  0  0  0  0  0  0  0
   -3.0000    2.5981    0.0000 C   0  0  0  0  0  0  0  0  0  0  0  0
   -3.7500    3.8971    0.0000 C   0  0  0  0  0  0  0  0  0  0  0  0
   -5.2500    3.8971    0.0000 C   0  0  0  0  0  0  0  0  0  0  0  0
   -6.0000    5.1962    0.0000 O   0  0  0  0  0  0  0  0  0  0  0  0
   -5.2500    6.4952    0.0000 C   0  0  0  0  0  0  0  0  0  0  0  0
   -6.0000    7.7942    0.0000 C   0  0  0  0  0  0  0  0  0  0  0  0
   -5.2500    9.0933    0.0000 C   0  0  0  0  0  0  0  0  0  0  0  0
   -6.0000   10.3923    0.0000 C   0  0  0  0  0  0  0  0  0  0  0  0
   -7.5000   10.3923    0.0000 C   0  0  0  0  0  0  0  0  0  0  0  0
   -8.2500    9.0933    0.0000 C   0  0  0  0  0  0  0  0  0  0  0  0
   -9.7500    9.0933    0.0000 F   0  0  0  0  0  0  0  0  0  0  0  0
   -7.5000    7.7942    0.0000 C   0  0  0  0  0  0  0  0  0  0  0  0
   -6.0000    2.5981    0.0000 C   0  0  0  0  0  0  0  0  0  0  0  0
   -7.5000    2.5981    0.0000 Cl  0  0  0  0  0  0  0  0  0  0  0  0
   -5.2500    1.2990    0.0000 C   0  0  0  0  0  0  0  0  0  0  0  0
   -0.7500   -1.2990    0.0000 C   0  0  0  0  0  0  0  0  0  0  0  0
   -1.2135   -2.7256    0.0000 S   0  0  0  0  0  0  0  0  0  0  0  0
    1.2135   -5.9890    0.0000 O   0  0  0  0  0  0  0  0  0  0  0  0
    1.9033  -11.2129    0.0000 C   0  0  0  0  0  0  0  0  0  0  0  0
    1.2931  -12.5833    0.0000 C   0  0  0  0  0  0  0  0  0  0  0  0
  1  2  1  0
  2  3  1  0
  3  4  1  0
  4  5  1  0
  5  6  1  0
  6  7  1  0
  7  8  2  0
  8  9  1  0
  9 10  2  0
 10 11  1  0
 11 12  2  0
 12 13  1  0
 13 14  2  0
 14 15  1  0
 15 16  2  0
 16 17  1  0
 17 18  1  0
 18 19  1  0
 19 20  2  0
 20 21  1  0
 21 22  2  0
 22 23  1  0
 23 24  1  0
 24 25  1  0
 25 26  2  0
 26 27  1  0
 27 28  2  0
 28 29  1  0
 29 30  1  0
 29 31  2  0
 22 32  1  0
 32 33  1  0
 32 34  2  0
 17 35  2  0
 35 36  1  0
 10 37  1  0
  5 38  1  0
 38 39  1  0
 39  2  1  0
 37  7  1  0
 36 11  1  0
 35 13  1  0
 34 19  1  0
 31 25  1  0
M  END
>  <Compound_ID>  (617) 
CHEMBL475761

>  <Molecule Name>  (617) 
GW784684X

>  <Molecular Weight>  (617) 
564.09

>  <AlogP>  (617) 
6.81

>  <Smiles>  (617) 
CN1CCN(Cc2ccc(-c3cc4ncnc(Nc5ccc(OCc6cccc(F)c6)c(Cl)c5)c4s3)o2)CC1

>  <Standard Type>  (617) 
Inhibition

>  <Standard Relation>  (617) 
'='

>  <Standard Units>  (617) 
%

>  <Standard Value>  (617) 
3.16

>  <Assay ChEMBL ID>  (617) 
CHEMBL1962185

>  <Assay Description>  (617) 
GSK_PKIS: TRKA mean inhibition at 1 uM [Nanosyn]

>  <BAO Format ID>  (617) 
BAO_0000357

>  <BAO Label>  (617) 
single protein format

>  <Assay Organism>  (617) 
None

>  <Target ChEMBL ID>  (617) 
CHEMBL2815

>  <Target Name>  (617) 
Nerve growth factor receptor Trk-A

>  <Target Organism>  (617) 
Homo sapiens

>  <Target Type>  (617) 
SINGLE PROTEIN

>  <Document ChEMBL ID>  (617) 
CHEMBL1961873

>  <Source Description>  (617) 
GSK Published Kinase Inhibitor Set

>  <Document Journal>  (617) 
nan

>  <Document Year>  (617) 
nan

>  <Active>  (617) 
0.0

>  <bits>  (617) 
<rdkit.DataStructs.cDataStructs.ExplicitBitVect object at 0x00000159F540D230>

>  <Group>  (617) 
G2

$$$$

     RDKit          2D

 31 34  0  0  0  0  0  0  0  0999 V2000
   -0.7500   -6.4952    0.0000 C   0  0  0  0  0  0  0  0  0  0  0  0
    0.7500   -6.4952    0.0000 C   0  0  0  0  0  0  0  0  0  0  0  0
    1.5000   -5.1962    0.0000 C   0  0  0  0  0  0  0  0  0  0  0  0
    0.7500   -3.8971    0.0000 C   0  0  0  0  0  0  0  0  0  0  0  0
   -0.7500   -3.8971    0.0000 O   0  0  0  0  0  0  0  0  0  0  0  0
    1.5000   -2.5981    0.0000 N   0  0  0  0  0  0  0  0  0  0  0  0
    0.7500   -1.2990    0.0000 C   0  0  0  0  0  0  0  0  0  0  0  0
    1.5000    0.0000    0.0000 C   0  0  0  0  0  0  0  0  0  0  0  0
    0.7500    1.2990    0.0000 C   0  0  0  0  0  0  0  0  0  0  0  0
   -0.7500    1.2990    0.0000 C   0  0  0  0  0  0  0  0  0  0  0  0
   -1.7537    2.4138    0.0000 N   0  0  0  0  0  0  0  0  0  0  0  0
   -3.1240    1.8037    0.0000 N   0  0  0  0  0  0  0  0  0  0  0  0
   -2.9672    0.3119    0.0000 C   0  0  0  0  0  0  0  0  0  0  0  0
   -4.0819   -0.6918    0.0000 C   0  0  0  0  0  0  0  0  0  0  0  0
   -1.5000    0.0000    0.0000 C   0  0  0  0  0  0  0  0  0  0  0  0
   -0.7500   -1.2990    0.0000 C   0  0  0  0  0  0  0  0  0  0  0  0
    3.0000   -5.1962    0.0000 C   0  0  0  0  0  0  0  0  0  0  0  0
    3.7500   -3.8971    0.0000 C   0  0  0  0  0  0  0  0  0  0  0  0
    5.2500   -3.8971    0.0000 C   0  0  0  0  0  0  0  0  0  0  0  0
    6.0000   -2.5981    0.0000 C   0  0  0  0  0  0  0  0  0  0  0  0
    5.2500   -1.2990    0.0000 C   0  0  0  0  0  0  0  0  0  0  0  0
    6.0000   -0.0000    0.0000 C   0  0  0  0  0  0  0  0  0  0  0  0
    6.7500    1.2990    0.0000 F   0  0  0  0  0  0  0  0  0  0  0  0
    7.2990   -0.7500    0.0000 F   0  0  0  0  0  0  0  0  0  0  0  0
    4.7010    0.7500    0.0000 F   0  0  0  0  0  0  0  0  0  0  0  0
    3.7500   -1.2990    0.0000 C   0  0  0  0  0  0  0  0  0  0  0  0
    3.0000   -2.5981    0.0000 C   0  0  0  0  0  0  0  0  0  0  0  0
    3.7500   -6.4952    0.0000 C   0  0  0  0  0  0  0  0  0  0  0  0
    3.0000   -7.7942    0.0000 C   0  0  0  0  0  0  0  0  0  0  0  0
    3.7500   -9.0933    0.0000 O   0  0  0  0  0  0  0  0  0  0  0  0
    1.5000   -7.7942    0.0000 N   0  0  0  0  0  0  0  0  0  0  0  0
  1  2  1  0
  2  3  2  0
  3  4  1  0
  4  5  2  0
  4  6  1  0
  6  7  1  0
  7  8  2  0
  8  9  1  0
  9 10  2  0
 10 11  1  0
 11 12  1  0
 12 13  2  0
 13 14  1  0
 13 15  1  0
 15 16  2  0
  3 17  1  0
 17 18  1  0
 18 19  2  0
 19 20  1  0
 20 21  2  0
 21 22  1  0
 22 23  1  0
 22 24  1  0
 22 25  1  0
 21 26  1  0
 26 27  2  0
 17 28  1  0
 28 29  1  0
 29 30  2  0
 29 31  1  0
 31  2  1  0
 16  7  1  0
 27 18  1  0
 15 10  1  0
M  END
>  <Compound_ID>  (618) 
CHEMBL218720

>  <Molecule Name>  (618) 
GSK-466314A

>  <Molecular Weight>  (618) 
428.41

>  <AlogP>  (618) 
4.41

>  <Smiles>  (618) 
CC1=C(C(=O)Nc2ccc3[nH]nc(C)c3c2)C(c2ccc(C(F)(F)F)cc2)CC(=O)N1

>  <Standard Type>  (618) 
Inhibition

>  <Standard Relation>  (618) 
'='

>  <Standard Units>  (618) 
%

>  <Standard Value>  (618) 
4.41

>  <Assay ChEMBL ID>  (618) 
CHEMBL1962184

>  <Assay Description>  (618) 
GSK_PKIS: TRKA mean inhibition at 0.1 uM [Nanosyn]

>  <BAO Format ID>  (618) 
BAO_0000357

>  <BAO Label>  (618) 
single protein format

>  <Assay Organism>  (618) 
None

>  <Target ChEMBL ID>  (618) 
CHEMBL2815

>  <Target Name>  (618) 
Nerve growth factor receptor Trk-A

>  <Target Organism>  (618) 
Homo sapiens

>  <Target Type>  (618) 
SINGLE PROTEIN

>  <Document ChEMBL ID>  (618) 
CHEMBL1961873

>  <Source Description>  (618) 
GSK Published Kinase Inhibitor Set

>  <Document Journal>  (618) 
nan

>  <Document Year>  (618) 
nan

>  <Active>  (618) 
0.0

>  <bits>  (618) 
<rdkit.DataStructs.cDataStructs.ExplicitBitVect object at 0x00000159F540F8B0>

>  <Group>  (618) 
G2

$$$$

     RDKit          2D

 18 20  0  0  0  0  0  0  0  0999 V2000
    1.5000    0.0000    0.0000 C   0  0  0  0  0  0  0  0  0  0  0  0
    0.7500   -1.2990    0.0000 C   0  0  0  0  0  0  0  0  0  0  0  0
   -0.7500   -1.2990    0.0000 C   0  0  0  0  0  0  0  0  0  0  0  0
   -1.5000    0.0000    0.0000 C   0  0  0  0  0  0  0  0  0  0  0  0
   -3.0000    0.0000    0.0000 N   0  0  0  0  0  0  0  0  0  0  0  0
   -3.7500    1.2990    0.0000 C   0  0  0  0  0  0  0  0  0  0  0  0
   -5.2418    1.4558    0.0000 N   0  0  0  0  0  0  0  0  0  0  0  0
   -5.5537    2.9231    0.0000 C   0  0  0  0  0  0  0  0  0  0  0  0
   -4.2546    3.6731    0.0000 C   0  0  0  0  0  0  0  0  0  0  0  0
   -4.0978    5.1648    0.0000 C   0  0  0  0  0  0  0  0  0  0  0  0
   -2.7275    5.7749    0.0000 C   0  0  0  0  0  0  0  0  0  0  0  0
   -2.5707    7.2667    0.0000 C   0  0  0  0  0  0  0  0  0  0  0  0
   -3.7842    8.1484    0.0000 C   0  0  0  0  0  0  0  0  0  0  0  0
   -5.1546    7.5383    0.0000 C   0  0  0  0  0  0  0  0  0  0  0  0
   -5.3113    6.0465    0.0000 C   0  0  0  0  0  0  0  0  0  0  0  0
   -3.1399    2.6694    0.0000 O   0  0  0  0  0  0  0  0  0  0  0  0
   -0.7500    1.2990    0.0000 C   0  0  0  0  0  0  0  0  0  0  0  0
    0.7500    1.2990    0.0000 C   0  0  0  0  0  0  0  0  0  0  0  0
  1  2  2  0
  2  3  1  0
  3  4  2  0
  4  5  1  0
  5  6  1  0
  6  7  2  0
  7  8  1  0
  8  9  2  0
  9 10  1  0
 10 11  2  0
 11 12  1  0
 12 13  2  0
 13 14  1  0
 14 15  2  0
  9 16  1  0
  4 17  1  0
 17 18  2  0
 18  1  1  0
 16  6  1  0
 15 10  1  0
M  END
>  <Compound_ID>  (619) 
CHEMBL318728

>  <Molecule Name>  (619) 
GW549390X

>  <Molecular Weight>  (619) 
236.27

>  <AlogP>  (619) 
4.09

>  <Smiles>  (619) 
c1ccc(Nc2ncc(-c3ccccc3)o2)cc1

>  <Standard Type>  (619) 
Inhibition

>  <Standard Relation>  (619) 
'='

>  <Standard Units>  (619) 
%

>  <Standard Value>  (619) 
6.98

>  <Assay ChEMBL ID>  (619) 
CHEMBL1962185

>  <Assay Description>  (619) 
GSK_PKIS: TRKA mean inhibition at 1 uM [Nanosyn]

>  <BAO Format ID>  (619) 
BAO_0000357

>  <BAO Label>  (619) 
single protein format

>  <Assay Organism>  (619) 
None

>  <Target ChEMBL ID>  (619) 
CHEMBL2815

>  <Target Name>  (619) 
Nerve growth factor receptor Trk-A

>  <Target Organism>  (619) 
Homo sapiens

>  <Target Type>  (619) 
SINGLE PROTEIN

>  <Document ChEMBL ID>  (619) 
CHEMBL1961873

>  <Source Description>  (619) 
GSK Published Kinase Inhibitor Set

>  <Document Journal>  (619) 
nan

>  <Document Year>  (619) 
nan

>  <Active>  (619) 
0.0

>  <bits>  (619) 
<rdkit.DataStructs.cDataStructs.ExplicitBitVect object at 0x00000159F540FBC0>

>  <Group>  (619) 
G2

$$$$

     RDKit          2D

 36 39  0  0  0  0  0  0  0  0999 V2000
   -2.5981   -8.1073    0.0000 C   0  0  0  0  0  0  0  0  0  0  0  0
   -1.2990   -7.3573    0.0000 O   0  0  0  0  0  0  0  0  0  0  0  0
   -1.2990   -5.8573    0.0000 C   0  0  0  0  0  0  0  0  0  0  0  0
   -2.5981   -5.1073    0.0000 O   0  0  0  0  0  0  0  0  0  0  0  0
   -0.0000   -5.1073    0.0000 N   0  0  0  0  0  0  0  0  0  0  0  0
   -0.0000   -3.6073    0.0000 C   0  0  0  0  0  0  0  0  0  0  0  0
    1.2135   -2.7256    0.0000 N   0  0  0  0  0  0  0  0  0  0  0  0
    0.7500   -1.2990    0.0000 C   0  0  0  0  0  0  0  0  0  0  0  0
    1.5000    0.0000    0.0000 C   0  0  0  0  0  0  0  0  0  0  0  0
    0.7500    1.2990    0.0000 C   0  0  0  0  0  0  0  0  0  0  0  0
    1.5000    2.5981    0.0000 O   0  0  0  0  0  0  0  0  0  0  0  0
    3.0000    2.5981    0.0000 C   0  0  0  0  0  0  0  0  0  0  0  0
    3.7500    1.2990    0.0000 C   0  0  0  0  0  0  0  0  0  0  0  0
    5.2500    1.2990    0.0000 C   0  0  0  0  0  0  0  0  0  0  0  0
    6.0000    2.5981    0.0000 C   0  0  0  0  0  0  0  0  0  0  0  0
    5.2500    3.8971    0.0000 C   0  0  0  0  0  0  0  0  0  0  0  0
    6.0000    5.1962    0.0000 N   0  0  0  0  0  0  0  0  0  0  0  0
    7.5000    5.1962    0.0000 C   0  0  0  0  0  0  0  0  0  0  0  0
    8.2500    3.8971    0.0000 O   0  0  0  0  0  0  0  0  0  0  0  0
    8.2500    6.4952    0.0000 N   0  0  0  0  0  0  0  0  0  0  0  0
    9.7500    6.4952    0.0000 C   0  0  0  0  0  0  0  0  0  0  0  0
   10.5000    5.1962    0.0000 C   0  0  0  0  0  0  0  0  0  0  0  0
   12.0000    5.1962    0.0000 C   0  0  0  0  0  0  0  0  0  0  0  0
   12.7500    3.8971    0.0000 C   0  0  0  0  0  0  0  0  0  0  0  0
   13.5000    2.5981    0.0000 F   0  0  0  0  0  0  0  0  0  0  0  0
   11.4510    3.1471    0.0000 F   0  0  0  0  0  0  0  0  0  0  0  0
   14.0490    4.6471    0.0000 F   0  0  0  0  0  0  0  0  0  0  0  0
   12.7500    6.4952    0.0000 C   0  0  0  0  0  0  0  0  0  0  0  0
   12.0000    7.7942    0.0000 C   0  0  0  0  0  0  0  0  0  0  0  0
   10.5000    7.7942    0.0000 C   0  0  0  0  0  0  0  0  0  0  0  0
    9.7500    9.0933    0.0000 F   0  0  0  0  0  0  0  0  0  0  0  0
    3.7500    3.8971    0.0000 C   0  0  0  0  0  0  0  0  0  0  0  0
   -0.7500    1.2990    0.0000 C   0  0  0  0  0  0  0  0  0  0  0  0
   -1.5000    0.0000    0.0000 C   0  0  0  0  0  0  0  0  0  0  0  0
   -0.7500   -1.2990    0.0000 C   0  0  0  0  0  0  0  0  0  0  0  0
   -1.2135   -2.7256    0.0000 N   0  0  0  0  0  0  0  0  0  0  0  0
  1  2  1  0
  2  3  1  0
  3  4  2  0
  3  5  1  0
  5  6  1  0
  6  7  2  0
  7  8  1  0
  8  9  2  0
  9 10  1  0
 10 11  1  0
 11 12  1  0
 12 13  2  0
 13 14  1  0
 14 15  2  0
 15 16  1  0
 16 17  1  0
 17 18  1  0
 18 19  2  0
 18 20  1  0
 20 21  1  0
 21 22  2  0
 22 23  1  0
 23 24  1  0
 24 25  1  0
 24 26  1  0
 24 27  1  0
 23 28  2  0
 28 29  1  0
 29 30  2  0
 30 31  1  0
 16 32  2  0
 10 33  2  0
 33 34  1  0
 34 35  2  0
 35 36  1  0
 36  6  1  0
 35  8  1  0
 32 12  1  0
 30 21  1  0
M  END
>  <Compound_ID>  (620) 
CHEMBL1909366

>  <Molecule Name>  (620) 
GW659386A

>  <Molecular Weight>  (620) 
539.87

>  <AlogP>  (620) 
6.34

>  <Smiles>  (620) 
COC(=O)Nc1nc2cc(Oc3cccc(NC(=O)Nc4cc(C(F)(F)F)ccc4F)c3)ccc2[nH]1

>  <Standard Type>  (620) 
Inhibition

>  <Standard Relation>  (620) 
'='

>  <Standard Units>  (620) 
%

>  <Standard Value>  (620) 
-0.96

>  <Assay ChEMBL ID>  (620) 
CHEMBL1962185

>  <Assay Description>  (620) 
GSK_PKIS: TRKA mean inhibition at 1 uM [Nanosyn]

>  <BAO Format ID>  (620) 
BAO_0000357

>  <BAO Label>  (620) 
single protein format

>  <Assay Organism>  (620) 
None

>  <Target ChEMBL ID>  (620) 
CHEMBL2815

>  <Target Name>  (620) 
Nerve growth factor receptor Trk-A

>  <Target Organism>  (620) 
Homo sapiens

>  <Target Type>  (620) 
SINGLE PROTEIN

>  <Document ChEMBL ID>  (620) 
CHEMBL1961873

>  <Source Description>  (620) 
GSK Published Kinase Inhibitor Set

>  <Document Journal>  (620) 
nan

>  <Document Year>  (620) 
nan

>  <Active>  (620) 
0.0

>  <bits>  (620) 
<rdkit.DataStructs.cDataStructs.ExplicitBitVect object at 0x00000159F540EC00>

>  <Group>  (620) 
G2

$$$$

     RDKit          2D

 42 48  0  0  0  0  0  0  0  0999 V2000
   -0.4702  -13.1562    0.0000 O   0  0  0  0  0  0  0  0  0  0  0  0
    1.0216  -12.9994    0.0000 C   0  0  0  0  0  0  0  0  0  0  0  0
    1.6317  -11.6291    0.0000 O   0  0  0  0  0  0  0  0  0  0  0  0
    0.7500  -10.4156    0.0000 C   0  0  0  0  0  0  0  0  0  0  0  0
   -0.7500  -10.4156    0.0000 C   0  0  0  0  0  0  0  0  0  0  0  0
   -1.2135   -8.9890    0.0000 N   0  0  0  0  0  0  0  0  0  0  0  0
    0.0000   -8.1073    0.0000 C   0  0  0  0  0  0  0  0  0  0  0  0
   -0.0000   -6.6073    0.0000 C   0  0  0  0  0  0  0  0  0  0  0  0
   -0.0000   -5.1073    0.0000 C   0  0  0  0  0  0  0  0  0  0  0  0
   -0.0000   -3.6073    0.0000 C   0  0  0  0  0  0  0  0  0  0  0  0
    1.2135   -2.7256    0.0000 C   0  0  0  0  0  0  0  0  0  0  0  0
    0.7500   -1.2990    0.0000 C   0  0  0  0  0  0  0  0  0  0  0  0
    1.5000    0.0000    0.0000 N   0  0  0  0  0  0  0  0  0  0  0  0
    0.7500    1.2990    0.0000 C   0  0  0  0  0  0  0  0  0  0  0  0
   -0.7500    1.2990    0.0000 N   0  0  0  0  0  0  0  0  0  0  0  0
   -1.5000    0.0000    0.0000 C   0  0  0  0  0  0  0  0  0  0  0  0
   -3.0000    0.0000    0.0000 N   0  0  0  0  0  0  0  0  0  0  0  0
   -3.7500    1.2990    0.0000 C   0  0  0  0  0  0  0  0  0  0  0  0
   -3.0000    2.5981    0.0000 C   0  0  0  0  0  0  0  0  0  0  0  0
   -3.7500    3.8971    0.0000 C   0  0  0  0  0  0  0  0  0  0  0  0
   -5.2500    3.8971    0.0000 C   0  0  0  0  0  0  0  0  0  0  0  0
   -6.0000    2.5981    0.0000 C   0  0  0  0  0  0  0  0  0  0  0  0
   -7.4672    2.9099    0.0000 C   0  0  0  0  0  0  0  0  0  0  0  0
   -7.6240    4.4017    0.0000 N   0  0  0  0  0  0  0  0  0  0  0  0
   -6.2537    5.0118    0.0000 N   0  0  0  0  0  0  0  0  0  0  0  0
   -5.9418    6.4791    0.0000 C   0  0  0  0  0  0  0  0  0  0  0  0
   -7.0565    7.4827    0.0000 C   0  0  0  0  0  0  0  0  0  0  0  0
   -6.7447    8.9500    0.0000 C   0  0  0  0  0  0  0  0  0  0  0  0
   -7.8594    9.9537    0.0000 C   0  0  0  0  0  0  0  0  0  0  0  0
   -9.2860    9.4901    0.0000 C   0  0  0  0  0  0  0  0  0  0  0  0
   -9.5978    8.0229    0.0000 C   0  0  0  0  0  0  0  0  0  0  0  0
   -8.4831    7.0192    0.0000 C   0  0  0  0  0  0  0  0  0  0  0  0
   -5.2500    1.2990    0.0000 C   0  0  0  0  0  0  0  0  0  0  0  0
   -0.7500   -1.2990    0.0000 C   0  0  0  0  0  0  0  0  0  0  0  0
   -1.2135   -2.7256    0.0000 S   0  0  0  0  0  0  0  0  0  0  0  0
    1.2135   -8.9890    0.0000 C   0  0  0  0  0  0  0  0  0  0  0  0
    1.9033  -14.2129    0.0000 N   0  0  0  0  0  0  0  0  0  0  0  0
    1.2931  -15.5833    0.0000 C   0  0  0  0  0  0  0  0  0  0  0  0
    2.1748  -16.7968    0.0000 C   0  0  0  0  0  0  0  0  0  0  0  0
    3.6666  -16.6400    0.0000 O   0  0  0  0  0  0  0  0  0  0  0  0
    4.2767  -15.2697    0.0000 C   0  0  0  0  0  0  0  0  0  0  0  0
    3.3950  -14.0561    0.0000 C   0  0  0  0  0  0  0  0  0  0  0  0
  1  2  2  0
  2  3  1  0
  4  3  1  1
  4  5  1  0
  5  6  1  0
  6  7  1  0
  7  8  1  6
  8  9  3  0
  9 10  1  0
 10 11  2  0
 11 12  1  0
 12 13  2  0
 13 14  1  0
 14 15  2  0
 15 16  1  0
 16 17  1  0
 17 18  1  0
 18 19  2  0
 19 20  1  0
 20 21  2  0
 21 22  1  0
 22 23  1  0
 23 24  2  0
 24 25  1  0
 25 26  1  0
 26 27  1  0
 27 28  2  0
 28 29  1  0
 29 30  2  0
 30 31  1  0
 31 32  2  0
 22 33  2  0
 16 34  2  0
 34 35  1  0
  7 36  1  0
  2 37  1  0
 37 38  1  0
 38 39  1  0
 39 40  1  0
 40 41  1  0
 41 42  1  0
 36  4  1  0
 42 37  1  0
 35 10  1  0
 34 12  1  0
 33 18  1  0
 25 21  1  0
 32 27  1  0
M  END
>  <Compound_ID>  (621) 
CHEMBL1909408

>  <Molecule Name>  (621) 
GSK-200398A

>  <Molecular Weight>  (621) 
616.15

>  <AlogP>  (621) 
4.38

>  <Smiles>  (621) 
O=C(O[C@H]1CN[C@H](C#Cc2cc3ncnc(Nc4ccc5c(cnn5Cc5ccccc5)c4)c3s2)C1)N1CCOCC1

>  <Standard Type>  (621) 
Inhibition

>  <Standard Relation>  (621) 
'='

>  <Standard Units>  (621) 
%

>  <Standard Value>  (621) 
-1.24

>  <Assay ChEMBL ID>  (621) 
CHEMBL1962184

>  <Assay Description>  (621) 
GSK_PKIS: TRKA mean inhibition at 0.1 uM [Nanosyn]

>  <BAO Format ID>  (621) 
BAO_0000357

>  <BAO Label>  (621) 
single protein format

>  <Assay Organism>  (621) 
None

>  <Target ChEMBL ID>  (621) 
CHEMBL2815

>  <Target Name>  (621) 
Nerve growth factor receptor Trk-A

>  <Target Organism>  (621) 
Homo sapiens

>  <Target Type>  (621) 
SINGLE PROTEIN

>  <Document ChEMBL ID>  (621) 
CHEMBL1961873

>  <Source Description>  (621) 
GSK Published Kinase Inhibitor Set

>  <Document Journal>  (621) 
nan

>  <Document Year>  (621) 
nan

>  <Active>  (621) 
0.0

>  <bits>  (621) 
<rdkit.DataStructs.cDataStructs.ExplicitBitVect object at 0x00000159F540CBA0>

>  <Group>  (621) 
G2

$$$$

     RDKit          2D

 25 26  0  0  0  0  0  0  0  0999 V2000
    6.0000   -2.5981    0.0000 C   0  0  0  0  0  0  0  0  0  0  0  0
    5.2500   -1.2990    0.0000 N   0  0  0  0  0  0  0  0  0  0  0  0
    3.7500   -1.2990    0.0000 C   0  0  0  0  0  0  0  0  0  0  0  0
    3.0000   -2.5981    0.0000 O   0  0  0  0  0  0  0  0  0  0  0  0
    3.0000    0.0000    0.0000 O   0  0  0  0  0  0  0  0  0  0  0  0
    1.5000    0.0000    0.0000 C   0  0  0  0  0  0  0  0  0  0  0  0
    0.7500   -1.2990    0.0000 C   0  0  0  0  0  0  0  0  0  0  0  0
   -0.7500   -1.2990    0.0000 C   0  0  0  0  0  0  0  0  0  0  0  0
   -1.5000   -2.5981    0.0000 C   0  0  0  0  0  0  0  0  0  0  0  0
   -1.5000    0.0000    0.0000 C   0  0  0  0  0  0  0  0  0  0  0  0
   -3.0000    0.0000    0.0000 C   0  0  0  0  0  0  0  0  0  0  0  0
   -3.7500    1.2990    0.0000 C   0  0  0  0  0  0  0  0  0  0  0  0
   -5.2500    1.2990    0.0000 C   0  0  0  0  0  0  0  0  0  0  0  0
   -6.0000    2.5981    0.0000 C   0  0  0  0  0  0  0  0  0  0  0  0
   -7.5000    2.5981    0.0000 N   0  0  0  0  0  0  0  0  0  0  0  0
   -8.2500    1.2990    0.0000 C   0  0  0  0  0  0  0  0  0  0  0  0
   -7.5000    0.0000    0.0000 C   0  0  0  0  0  0  0  0  0  0  0  0
   -8.2500   -1.2990    0.0000 C   0  0  0  0  0  0  0  0  0  0  0  0
   -7.5000   -2.5981    0.0000 O   0  0  0  0  0  0  0  0  0  0  0  0
   -9.7500   -1.2990    0.0000 N   0  0  0  0  0  0  0  0  0  0  0  0
  -10.5000   -2.5981    0.0000 C   0  0  0  0  0  0  0  0  0  0  0  0
   -6.0000    0.0000    0.0000 C   0  0  0  0  0  0  0  0  0  0  0  0
   -0.7500    1.2990    0.0000 C   0  0  0  0  0  0  0  0  0  0  0  0
   -1.5000    2.5981    0.0000 C   0  0  0  0  0  0  0  0  0  0  0  0
    0.7500    1.2990    0.0000 C   0  0  0  0  0  0  0  0  0  0  0  0
  1  2  1  0
  2  3  1  0
  3  4  2  0
  3  5  1  0
  5  6  1  0
  6  7  2  0
  7  8  1  0
  8  9  1  0
  8 10  2  0
 10 11  1  0
 11 12  2  0
 12 13  1  0
 13 14  2  0
 14 15  1  0
 15 16  2  0
 16 17  1  0
 17 18  1  0
 18 19  2  0
 18 20  1  0
 20 21  1  0
 17 22  2  0
 10 23  1  0
 23 24  1  0
 23 25  2  0
 25  6  1  0
 22 13  1  0
M  END
>  <Compound_ID>  (622) 
CHEMBL218932

>  <Molecule Name>  (622) 
GW432441X

>  <Molecular Weight>  (622) 
339.4

>  <AlogP>  (622) 
2.95

>  <Smiles>  (622) 
CNC(=O)Oc1cc(C)c(/C=C/c2cncc(C(=O)NC)c2)c(C)c1

>  <Standard Type>  (622) 
Inhibition

>  <Standard Relation>  (622) 
'='

>  <Standard Units>  (622) 
%

>  <Standard Value>  (622) 
-0.56

>  <Assay ChEMBL ID>  (622) 
CHEMBL1962185

>  <Assay Description>  (622) 
GSK_PKIS: TRKA mean inhibition at 1 uM [Nanosyn]

>  <BAO Format ID>  (622) 
BAO_0000357

>  <BAO Label>  (622) 
single protein format

>  <Assay Organism>  (622) 
None

>  <Target ChEMBL ID>  (622) 
CHEMBL2815

>  <Target Name>  (622) 
Nerve growth factor receptor Trk-A

>  <Target Organism>  (622) 
Homo sapiens

>  <Target Type>  (622) 
SINGLE PROTEIN

>  <Document ChEMBL ID>  (622) 
CHEMBL1961873

>  <Source Description>  (622) 
GSK Published Kinase Inhibitor Set

>  <Document Journal>  (622) 
nan

>  <Document Year>  (622) 
nan

>  <Active>  (622) 
0.0

>  <bits>  (622) 
<rdkit.DataStructs.cDataStructs.ExplicitBitVect object at 0x00000159F540F7D0>

>  <Group>  (622) 
G2

$$$$

     RDKit          2D

 25 29  0  0  0  0  0  0  0  0999 V2000
   -5.1814   -2.6490    0.0000 C   0  0  0  0  0  0  0  0  0  0  0  0
   -3.7548   -2.1855    0.0000 C   0  0  0  0  0  0  0  0  0  0  0  0
   -2.6401   -3.1891    0.0000 C   0  0  0  0  0  0  0  0  0  0  0  0
   -1.2135   -2.7256    0.0000 C   0  0  0  0  0  0  0  0  0  0  0  0
   -0.0000   -3.6073    0.0000 C   0  0  0  0  0  0  0  0  0  0  0  0
    1.2135   -2.7256    0.0000 N   0  0  0  0  0  0  0  0  0  0  0  0
    0.7500   -1.2990    0.0000 N   0  0  0  0  0  0  0  0  0  0  0  0
    1.5000    0.0000    0.0000 N   0  0  0  0  0  0  0  0  0  0  0  0
    0.7500    1.2990    0.0000 C   0  0  0  0  0  0  0  0  0  0  0  0
    1.5000    2.5981    0.0000 N   0  0  0  0  0  0  0  0  0  0  0  0
    3.0000    2.5981    0.0000 C   0  0  0  0  0  0  0  0  0  0  0  0
    3.7500    3.8971    0.0000 C   0  0  0  0  0  0  0  0  0  0  0  0
    3.0000    5.1962    0.0000 O   0  0  0  0  0  0  0  0  0  0  0  0
    1.5000    5.1962    0.0000 C   0  0  0  0  0  0  0  0  0  0  0  0
    0.7500    3.8971    0.0000 C   0  0  0  0  0  0  0  0  0  0  0  0
   -0.7500    1.2990    0.0000 C   0  0  0  0  0  0  0  0  0  0  0  0
   -1.5000    0.0000    0.0000 C   0  0  0  0  0  0  0  0  0  0  0  0
   -0.7500   -1.2990    0.0000 C   0  0  0  0  0  0  0  0  0  0  0  0
   -2.9520   -4.6564    0.0000 N   0  0  0  0  0  0  0  0  0  0  0  0
   -4.3786   -5.1199    0.0000 C   0  0  0  0  0  0  0  0  0  0  0  0
   -4.6904   -6.5871    0.0000 N   0  0  0  0  0  0  0  0  0  0  0  0
   -6.1170   -7.0506    0.0000 C   0  0  0  0  0  0  0  0  0  0  0  0
   -7.1207   -8.1654    0.0000 C   0  0  0  0  0  0  0  0  0  0  0  0
   -7.5842   -6.7388    0.0000 C   0  0  0  0  0  0  0  0  0  0  0  0
   -5.4933   -4.1162    0.0000 N   0  0  0  0  0  0  0  0  0  0  0  0
  1  2  2  0
  2  3  1  0
  3  4  1  0
  4  5  1  0
  5  6  2  0
  6  7  1  0
  7  8  1  0
  8  9  2  0
  9 10  1  0
 10 11  1  0
 11 12  1  0
 12 13  1  0
 13 14  1  0
 14 15  1  0
  9 16  1  0
 16 17  2  0
 17 18  1  0
  3 19  2  0
 19 20  1  0
 20 21  1  0
 21 22  1  0
 22 23  1  0
 23 24  1  0
 20 25  2  0
 25  1  1  0
 18  4  2  0
 24 22  1  0
 18  7  1  0
 15 10  1  0
M  END
>  <Compound_ID>  (623) 
CHEMBL495771

>  <Molecule Name>  (623) 
GW708336X

>  <Molecular Weight>  (623) 
337.39

>  <AlogP>  (623) 
1.6

>  <Smiles>  (623) 
c1cc(-c2cnn3nc(N4CCOCC4)ccc23)nc(NC2CC2)n1

>  <Standard Type>  (623) 
Inhibition

>  <Standard Relation>  (623) 
'='

>  <Standard Units>  (623) 
%

>  <Standard Value>  (623) 
4.16

>  <Assay ChEMBL ID>  (623) 
CHEMBL1962184

>  <Assay Description>  (623) 
GSK_PKIS: TRKA mean inhibition at 0.1 uM [Nanosyn]

>  <BAO Format ID>  (623) 
BAO_0000357

>  <BAO Label>  (623) 
single protein format

>  <Assay Organism>  (623) 
None

>  <Target ChEMBL ID>  (623) 
CHEMBL2815

>  <Target Name>  (623) 
Nerve growth factor receptor Trk-A

>  <Target Organism>  (623) 
Homo sapiens

>  <Target Type>  (623) 
SINGLE PROTEIN

>  <Document ChEMBL ID>  (623) 
CHEMBL1961873

>  <Source Description>  (623) 
GSK Published Kinase Inhibitor Set

>  <Document Journal>  (623) 
nan

>  <Document Year>  (623) 
nan

>  <Active>  (623) 
0.0

>  <bits>  (623) 
<rdkit.DataStructs.cDataStructs.ExplicitBitVect object at 0x00000159F540C890>

>  <Group>  (623) 
G2

$$$$

     RDKit          2D

 21 24  0  0  0  0  0  0  0  0999 V2000
   -1.8373   -5.6601    0.0000 O   0  0  0  0  0  0  0  0  0  0  0  0
   -2.9520   -4.6564    0.0000 C   0  0  0  0  0  0  0  0  0  0  0  0
   -2.6401   -3.1891    0.0000 N   0  0  0  0  0  0  0  0  0  0  0  0
   -1.2135   -2.7256    0.0000 C   0  0  0  0  0  0  0  0  0  0  0  0
   -0.0000   -3.6073    0.0000 N   0  0  0  0  0  0  0  0  0  0  0  0
    1.2135   -2.7256    0.0000 N   0  0  0  0  0  0  0  0  0  0  0  0
    0.7500   -1.2990    0.0000 C   0  0  0  0  0  0  0  0  0  0  0  0
    1.5000    0.0000    0.0000 N   0  0  0  0  0  0  0  0  0  0  0  0
    0.7500    1.2990    0.0000 N   0  0  0  0  0  0  0  0  0  0  0  0
   -0.7500    1.2990    0.0000 C   0  0  0  0  0  0  0  0  0  0  0  0
   -1.5000    2.5981    0.0000 C   0  0  0  0  0  0  0  0  0  0  0  0
   -0.7500    3.8971    0.0000 C   0  0  0  0  0  0  0  0  0  0  0  0
   -1.5000    5.1962    0.0000 C   0  0  0  0  0  0  0  0  0  0  0  0
   -3.0000    5.1962    0.0000 C   0  0  0  0  0  0  0  0  0  0  0  0
   -3.7500    3.8971    0.0000 N   0  0  0  0  0  0  0  0  0  0  0  0
   -3.0000    2.5981    0.0000 C   0  0  0  0  0  0  0  0  0  0  0  0
   -1.5000    0.0000    0.0000 C   0  0  0  0  0  0  0  0  0  0  0  0
   -0.7500   -1.2990    0.0000 C   0  0  0  0  0  0  0  0  0  0  0  0
   -4.3786   -5.1199    0.0000 C   0  0  0  0  0  0  0  0  0  0  0  0
   -5.3823   -6.2346    0.0000 C   0  0  0  0  0  0  0  0  0  0  0  0
   -5.8458   -4.8080    0.0000 C   0  0  0  0  0  0  0  0  0  0  0  0
  1  2  2  0
  2  3  1  0
  3  4  1  0
  4  5  2  0
  5  6  1  0
  6  7  1  0
  7  8  2  0
  8  9  1  0
  9 10  2  0
 10 11  1  0
 11 12  2  0
 12 13  1  0
 13 14  2  0
 14 15  1  0
 15 16  2  0
 10 17  1  0
 17 18  2  0
  2 19  1  0
 19 20  1  0
 20 21  1  0
 18  4  1  0
 21 19  1  0
 18  7  1  0
 16 11  1  0
M  END
>  <Compound_ID>  (624) 
CHEMBL1909343

>  <Molecule Name>  (624) 
nan

>  <Molecular Weight>  (624) 
394.31

>  <AlogP>  (624) 
1.76

>  <Smiles>  (624) 
O=C(Nc1n[nH]c2nnc(-c3cccnc3)cc12)C1CC1

>  <Standard Type>  (624) 
Inhibition

>  <Standard Relation>  (624) 
'='

>  <Standard Units>  (624) 
%

>  <Standard Value>  (624) 
0.12

>  <Assay ChEMBL ID>  (624) 
CHEMBL1962184

>  <Assay Description>  (624) 
GSK_PKIS: TRKA mean inhibition at 0.1 uM [Nanosyn]

>  <BAO Format ID>  (624) 
BAO_0000357

>  <BAO Label>  (624) 
single protein format

>  <Assay Organism>  (624) 
None

>  <Target ChEMBL ID>  (624) 
CHEMBL2815

>  <Target Name>  (624) 
Nerve growth factor receptor Trk-A

>  <Target Organism>  (624) 
Homo sapiens

>  <Target Type>  (624) 
SINGLE PROTEIN

>  <Document ChEMBL ID>  (624) 
CHEMBL1961873

>  <Source Description>  (624) 
GSK Published Kinase Inhibitor Set

>  <Document Journal>  (624) 
nan

>  <Document Year>  (624) 
nan

>  <Active>  (624) 
0.0

>  <bits>  (624) 
<rdkit.DataStructs.cDataStructs.ExplicitBitVect object at 0x00000159F540C820>

>  <Group>  (624) 
G2

$$$$

     RDKit          2D

 18 20  0  0  0  0  0  0  0  0999 V2000
    3.0000    0.0000    0.0000 N   0  0  0  0  0  0  0  0  0  0  0  0
    1.5000    0.0000    0.0000 C   0  0  0  0  0  0  0  0  0  0  0  0
    0.7500   -1.2990    0.0000 C   0  0  0  0  0  0  0  0  0  0  0  0
   -0.7500   -1.2990    0.0000 C   0  0  0  0  0  0  0  0  0  0  0  0
   -1.5000    0.0000    0.0000 C   0  0  0  0  0  0  0  0  0  0  0  0
   -3.0000    0.0000    0.0000 C   0  0  0  0  0  0  0  0  0  0  0  0
   -3.7500    1.2990    0.0000 C   0  0  0  0  0  0  0  0  0  0  0  0
   -5.2500    1.2990    0.0000 N   0  0  0  0  0  0  0  0  0  0  0  0
   -6.0000    0.0000    0.0000 C   0  0  0  0  0  0  0  0  0  0  0  0
   -5.2500   -1.2990    0.0000 C   0  0  0  0  0  0  0  0  0  0  0  0
   -6.0000   -2.5981    0.0000 C   0  0  0  0  0  0  0  0  0  0  0  0
   -5.3899   -3.9684    0.0000 C   0  0  0  0  0  0  0  0  0  0  0  0
   -6.5046   -4.9721    0.0000 C   0  0  0  0  0  0  0  0  0  0  0  0
   -7.8037   -4.2221    0.0000 S   0  0  0  0  0  0  0  0  0  0  0  0
   -7.4918   -2.7549    0.0000 C   0  0  0  0  0  0  0  0  0  0  0  0
   -3.7500   -1.2990    0.0000 N   0  0  0  0  0  0  0  0  0  0  0  0
   -0.7500    1.2990    0.0000 C   0  0  0  0  0  0  0  0  0  0  0  0
    0.7500    1.2990    0.0000 C   0  0  0  0  0  0  0  0  0  0  0  0
  1  2  1  0
  2  3  2  0
  3  4  1  0
  4  5  2  0
  5  6  1  0
  6  7  2  0
  7  8  1  0
  8  9  2  0
  9 10  1  0
 10 11  1  0
 11 12  1  0
 12 13  2  0
 13 14  1  0
 14 15  1  0
 10 16  2  0
  5 17  1  0
 17 18  2  0
 18  2  1  0
 16  6  1  0
 15 11  2  0
M  END
>  <Compound_ID>  (625) 
CHEMBL3596897

>  <Molecule Name>  (625) 
nan

>  <Molecular Weight>  (625) 
253.33

>  <AlogP>  (625) 
3.45

>  <Smiles>  (625) 
Nc1ccc(-c2cncc(-c3ccsc3)n2)cc1

>  <Standard Type>  (625) 
Inhibition

>  <Standard Relation>  (625) 
'='

>  <Standard Units>  (625) 
%

>  <Standard Value>  (625) 
17.0

>  <Assay ChEMBL ID>  (625) 
CHEMBL3598603

>  <Assay Description>  (625) 
Inhibition of human recombinant TrkA at 20 uM using ATP and 5FAM tagged TrkA peptide substrate incubated for 60 mins by microfluidics assay

>  <BAO Format ID>  (625) 
BAO_0000357

>  <BAO Label>  (625) 
single protein format

>  <Assay Organism>  (625) 
Homo sapiens

>  <Target ChEMBL ID>  (625) 
CHEMBL2815

>  <Target Name>  (625) 
Nerve growth factor receptor Trk-A

>  <Target Organism>  (625) 
Homo sapiens

>  <Target Type>  (625) 
SINGLE PROTEIN

>  <Document ChEMBL ID>  (625) 
CHEMBL3596123

>  <Source Description>  (625) 
Scientific Literature

>  <Document Journal>  (625) 
Medchemcomm

>  <Document Year>  (625) 
2014.0

>  <Active>  (625) 
0.0

>  <bits>  (625) 
<rdkit.DataStructs.cDataStructs.ExplicitBitVect object at 0x00000159F540F300>

>  <Group>  (625) 
G2

$$$$

     RDKit          2D

 22 24  0  0  0  0  0  0  0  0999 V2000
   -6.7407   -9.9851    0.0000 N   0  0  0  0  0  0  0  0  0  0  0  0
   -6.4289   -8.5179    0.0000 S   0  0  0  0  0  0  0  0  0  0  0  0
   -7.8961   -8.2060    0.0000 O   0  0  0  0  0  0  0  0  0  0  0  0
   -4.9617   -8.8297    0.0000 O   0  0  0  0  0  0  0  0  0  0  0  0
   -6.1170   -7.0506    0.0000 C   0  0  0  0  0  0  0  0  0  0  0  0
   -7.2317   -6.0469    0.0000 C   0  0  0  0  0  0  0  0  0  0  0  0
   -6.9199   -4.5797    0.0000 C   0  0  0  0  0  0  0  0  0  0  0  0
   -5.4933   -4.1162    0.0000 C   0  0  0  0  0  0  0  0  0  0  0  0
   -4.3786   -5.1199    0.0000 C   0  0  0  0  0  0  0  0  0  0  0  0
   -2.9520   -4.6564    0.0000 N   0  0  0  0  0  0  0  0  0  0  0  0
   -2.6401   -3.1891    0.0000 C   0  0  0  0  0  0  0  0  0  0  0  0
   -1.2135   -2.7256    0.0000 C   0  0  0  0  0  0  0  0  0  0  0  0
   -0.0000   -3.6073    0.0000 C   0  0  0  0  0  0  0  0  0  0  0  0
    0.0000   -5.1073    0.0000 O   0  0  0  0  0  0  0  0  0  0  0  0
    1.2135   -2.7256    0.0000 N   0  0  0  0  0  0  0  0  0  0  0  0
    0.7500   -1.2990    0.0000 C   0  0  0  0  0  0  0  0  0  0  0  0
    1.5000    0.0000    0.0000 C   0  0  0  0  0  0  0  0  0  0  0  0
    0.7500    1.2990    0.0000 C   0  0  0  0  0  0  0  0  0  0  0  0
   -0.7500    1.2990    0.0000 C   0  0  0  0  0  0  0  0  0  0  0  0
   -1.5000    0.0000    0.0000 C   0  0  0  0  0  0  0  0  0  0  0  0
   -0.7500   -1.2990    0.0000 C   0  0  0  0  0  0  0  0  0  0  0  0
   -4.6904   -6.5871    0.0000 C   0  0  0  0  0  0  0  0  0  0  0  0
  1  2  1  0
  2  3  2  0
  2  4  2  0
  2  5  1  0
  5  6  2  0
  6  7  1  0
  7  8  2  0
  8  9  1  0
  9 10  1  0
 10 11  1  0
 11 12  2  0
 12 13  1  0
 13 14  2  0
 13 15  1  0
 15 16  1  0
 16 17  2  0
 17 18  1  0
 18 19  2  0
 19 20  1  0
 20 21  2  0
  9 22  2  0
 22  5  1  0
 21 12  1  0
 21 16  1  0
M  END
>  <Compound_ID>  (626) 
CHEMBL1794059

>  <Molecule Name>  (626) 
GW275616X

>  <Molecular Weight>  (626) 
315.35

>  <AlogP>  (626) 
1.74

>  <Smiles>  (626) 
NS(=O)(=O)c1cccc(N/C=C2\C(=O)Nc3ccccc32)c1

>  <Standard Type>  (626) 
Inhibition

>  <Standard Relation>  (626) 
'='

>  <Standard Units>  (626) 
%

>  <Standard Value>  (626) 
16.17

>  <Assay ChEMBL ID>  (626) 
CHEMBL1962185

>  <Assay Description>  (626) 
GSK_PKIS: TRKA mean inhibition at 1 uM [Nanosyn]

>  <BAO Format ID>  (626) 
BAO_0000357

>  <BAO Label>  (626) 
single protein format

>  <Assay Organism>  (626) 
None

>  <Target ChEMBL ID>  (626) 
CHEMBL2815

>  <Target Name>  (626) 
Nerve growth factor receptor Trk-A

>  <Target Organism>  (626) 
Homo sapiens

>  <Target Type>  (626) 
SINGLE PROTEIN

>  <Document ChEMBL ID>  (626) 
CHEMBL1961873

>  <Source Description>  (626) 
GSK Published Kinase Inhibitor Set

>  <Document Journal>  (626) 
nan

>  <Document Year>  (626) 
nan

>  <Active>  (626) 
0.0

>  <bits>  (626) 
<rdkit.DataStructs.cDataStructs.ExplicitBitVect object at 0x00000159F540C660>

>  <Group>  (626) 
G2

$$$$

     RDKit          2D

 23 26  0  0  0  0  0  0  0  0999 V2000
   -6.4937   -2.7256    0.0000 O   0  0  0  0  0  0  0  0  0  0  0  0
   -5.0672   -3.1891    0.0000 C   0  0  0  0  0  0  0  0  0  0  0  0
   -4.6036   -4.6157    0.0000 N   0  0  0  0  0  0  0  0  0  0  0  0
   -3.1036   -4.6157    0.0000 C   0  0  0  0  0  0  0  0  0  0  0  0
   -2.2220   -5.8293    0.0000 O   0  0  0  0  0  0  0  0  0  0  0  0
   -2.6401   -3.1891    0.0000 C   0  0  0  0  0  0  0  0  0  0  0  0
   -1.2135   -2.7256    0.0000 N   0  0  0  0  0  0  0  0  0  0  0  0
   -0.0000   -3.6073    0.0000 C   0  0  0  0  0  0  0  0  0  0  0  0
    1.2135   -2.7256    0.0000 C   0  0  0  0  0  0  0  0  0  0  0  0
    0.7500   -1.2990    0.0000 C   0  0  0  0  0  0  0  0  0  0  0  0
    1.5000    0.0000    0.0000 C   0  0  0  0  0  0  0  0  0  0  0  0
    0.7500    1.2990    0.0000 C   0  0  0  0  0  0  0  0  0  0  0  0
   -0.7500    1.2990    0.0000 C   0  0  0  0  0  0  0  0  0  0  0  0
   -1.5000    0.0000    0.0000 C   0  0  0  0  0  0  0  0  0  0  0  0
   -0.7500   -1.2990    0.0000 C   0  0  0  0  0  0  0  0  0  0  0  0
   -3.8536   -2.3075    0.0000 C   0  0  0  0  0  0  0  0  0  0  0  0
   -3.8536   -0.8075    0.0000 C   0  0  0  0  0  0  0  0  0  0  0  0
   -2.5546   -0.0575    0.0000 C   0  0  0  0  0  0  0  0  0  0  0  0
   -2.5546    1.4425    0.0000 C   0  0  0  0  0  0  0  0  0  0  0  0
   -3.8536    2.1925    0.0000 C   0  0  0  0  0  0  0  0  0  0  0  0
   -3.8536    3.6925    0.0000 Cl  0  0  0  0  0  0  0  0  0  0  0  0
   -5.1527    1.4425    0.0000 C   0  0  0  0  0  0  0  0  0  0  0  0
   -5.1527   -0.0575    0.0000 C   0  0  0  0  0  0  0  0  0  0  0  0
  1  2  2  0
  2  3  1  0
  3  4  1  0
  4  5  2  0
  4  6  1  0
  6  7  1  0
  7  8  1  0
  8  9  1  0
  9 10  1  0
 10 11  2  0
 11 12  1  0
 12 13  2  0
 13 14  1  0
 14 15  2  0
  6 16  2  0
 16 17  1  0
 17 18  2  0
 18 19  1  0
 19 20  2  0
 20 21  1  0
 20 22  1  0
 22 23  2  0
 16  2  1  0
 23 17  1  0
 15  7  1  0
 15 10  1  0
M  END
>  <Compound_ID>  (627) 
CHEMBL156524

>  <Molecule Name>  (627) 
nan

>  <Molecular Weight>  (627) 
324.77

>  <AlogP>  (627) 
2.77

>  <Smiles>  (627) 
O=C1NC(=O)C(N2CCc3ccccc32)=C1c1ccc(Cl)cc1

>  <Standard Type>  (627) 
Inhibition

>  <Standard Relation>  (627) 
'='

>  <Standard Units>  (627) 
%

>  <Standard Value>  (627) 
4.36

>  <Assay ChEMBL ID>  (627) 
CHEMBL1962184

>  <Assay Description>  (627) 
GSK_PKIS: TRKA mean inhibition at 0.1 uM [Nanosyn]

>  <BAO Format ID>  (627) 
BAO_0000357

>  <BAO Label>  (627) 
single protein format

>  <Assay Organism>  (627) 
None

>  <Target ChEMBL ID>  (627) 
CHEMBL2815

>  <Target Name>  (627) 
Nerve growth factor receptor Trk-A

>  <Target Organism>  (627) 
Homo sapiens

>  <Target Type>  (627) 
SINGLE PROTEIN

>  <Document ChEMBL ID>  (627) 
CHEMBL1961873

>  <Source Description>  (627) 
GSK Published Kinase Inhibitor Set

>  <Document Journal>  (627) 
nan

>  <Document Year>  (627) 
nan

>  <Active>  (627) 
0.0

>  <bits>  (627) 
<rdkit.DataStructs.cDataStructs.ExplicitBitVect object at 0x00000159F540C580>

>  <Group>  (627) 
G2

$$$$

     RDKit          2D

 21 24  0  0  0  0  0  0  0  0999 V2000
    0.7500   -6.4952    0.0000 O   0  0  0  0  0  0  0  0  0  0  0  0
    1.5000   -5.1962    0.0000 C   0  0  0  0  0  0  0  0  0  0  0  0
    3.0000   -5.1962    0.0000 C   0  0  0  0  0  0  0  0  0  0  0  0
    3.7500   -3.8971    0.0000 C   0  0  0  0  0  0  0  0  0  0  0  0
    5.2500   -3.8971    0.0000 N   0  0  0  0  0  0  0  0  0  0  0  0
    6.0000   -5.1962    0.0000 C   0  0  0  0  0  0  0  0  0  0  0  0
    7.5000   -5.1962    0.0000 C   0  0  0  0  0  0  0  0  0  0  0  0
    8.2500   -3.8971    0.0000 O   0  0  0  0  0  0  0  0  0  0  0  0
    7.5000   -2.5981    0.0000 C   0  0  0  0  0  0  0  0  0  0  0  0
    6.0000   -2.5981    0.0000 C   0  0  0  0  0  0  0  0  0  0  0  0
    3.0000   -2.5981    0.0000 N   0  0  0  0  0  0  0  0  0  0  0  0
    1.5000   -2.5981    0.0000 C   0  0  0  0  0  0  0  0  0  0  0  0
    0.7500   -1.2990    0.0000 C   0  0  0  0  0  0  0  0  0  0  0  0
    1.5000    0.0000    0.0000 C   0  0  0  0  0  0  0  0  0  0  0  0
    0.7500    1.2990    0.0000 C   0  0  0  0  0  0  0  0  0  0  0  0
   -0.7500    1.2990    0.0000 C   0  0  0  0  0  0  0  0  0  0  0  0
   -1.5000    0.0000    0.0000 C   0  0  0  0  0  0  0  0  0  0  0  0
   -0.7500   -1.2990    0.0000 C   0  0  0  0  0  0  0  0  0  0  0  0
   -1.5000   -2.5981    0.0000 C   0  0  0  0  0  0  0  0  0  0  0  0
   -0.7500   -3.8971    0.0000 C   0  0  0  0  0  0  0  0  0  0  0  0
    0.7500   -3.8971    0.0000 N   0  0  0  0  0  0  0  0  0  0  0  0
  1  2  2  0
  2  3  1  0
  3  4  2  0
  4  5  1  0
  5  6  1  0
  6  7  1  0
  7  8  1  0
  8  9  1  0
  9 10  1  0
  4 11  1  0
 11 12  2  0
 12 13  1  0
 13 14  2  0
 14 15  1  0
 15 16  2  0
 16 17  1  0
 17 18  2  0
 18 19  1  0
 19 20  2  0
 20 21  1  0
 21  2  1  0
 10  5  1  0
 21 12  1  0
 18 13  1  0
M  END
>  <Compound_ID>  (628) 
CHEMBL179242

>  <Molecule Name>  (628) 
nan

>  <Molecular Weight>  (628) 
281.31

>  <AlogP>  (628) 
1.68

>  <Smiles>  (628) 
O=c1cc(N2CCOCC2)nc2c3ccccc3ccn12

>  <Standard Type>  (628) 
Inhibition

>  <Standard Relation>  (628) 
'='

>  <Standard Units>  (628) 
%

>  <Standard Value>  (628) 
-17.0

>  <Assay ChEMBL ID>  (628) 
CHEMBL941451

>  <Assay Description>  (628) 
Inhibition of NTRK1 at 5 uM

>  <BAO Format ID>  (628) 
BAO_0000357

>  <BAO Label>  (628) 
single protein format

>  <Assay Organism>  (628) 
None

>  <Target ChEMBL ID>  (628) 
CHEMBL2815

>  <Target Name>  (628) 
Nerve growth factor receptor Trk-A

>  <Target Organism>  (628) 
Homo sapiens

>  <Target Type>  (628) 
SINGLE PROTEIN

>  <Document ChEMBL ID>  (628) 
CHEMBL1156476

>  <Source Description>  (628) 
Scientific Literature

>  <Document Journal>  (628) 
J Biol Chem

>  <Document Year>  (628) 
2007.0

>  <Active>  (628) 
0.0

>  <bits>  (628) 
<rdkit.DataStructs.cDataStructs.ExplicitBitVect object at 0x00000159F540C430>

>  <Group>  (628) 
G2

$$$$

     RDKit          2D

 23 26  0  0  0  0  0  0  0  0999 V2000
   -7.2296    2.8340    0.0000 C   0  0  0  0  0  0  0  0  0  0  0  0
   -6.1149    1.8303    0.0000 O   0  0  0  0  0  0  0  0  0  0  0  0
   -4.6883    2.2939    0.0000 C   0  0  0  0  0  0  0  0  0  0  0  0
   -4.3764    3.7611    0.0000 O   0  0  0  0  0  0  0  0  0  0  0  0
   -3.5736    1.2902    0.0000 N   0  0  0  0  0  0  0  0  0  0  0  0
   -2.1470    1.7537    0.0000 C   0  0  0  0  0  0  0  0  0  0  0  0
   -1.8351    3.2209    0.0000 C   0  0  0  0  0  0  0  0  0  0  0  0
   -0.4086    3.6844    0.0000 C   0  0  0  0  0  0  0  0  0  0  0  0
   -0.0967    5.1517    0.0000 C   0  0  0  0  0  0  0  0  0  0  0  0
   -1.1004    6.2664    0.0000 C   0  0  0  0  0  0  0  0  0  0  0  0
   -2.5922    6.1096    0.0000 C   0  0  0  0  0  0  0  0  0  0  0  0
   -3.8057    5.2279    0.0000 C   0  0  0  0  0  0  0  0  0  0  0  0
   -3.9625    6.7197    0.0000 C   0  0  0  0  0  0  0  0  0  0  0  0
   -0.3504    7.5654    0.0000 N   0  0  0  0  0  0  0  0  0  0  0  0
    1.1168    7.2536    0.0000 N   0  0  0  0  0  0  0  0  0  0  0  0
    1.2736    5.7618    0.0000 C   0  0  0  0  0  0  0  0  0  0  0  0
    2.5727    5.0118    0.0000 C   0  0  0  0  0  0  0  0  0  0  0  0
    0.7062    2.6807    0.0000 C   0  0  0  0  0  0  0  0  0  0  0  0
    0.3943    1.2135    0.0000 C   0  0  0  0  0  0  0  0  0  0  0  0
    1.2760    0.0000    0.0000 N   0  0  0  0  0  0  0  0  0  0  0  0
    0.3943   -1.2135    0.0000 N   0  0  0  0  0  0  0  0  0  0  0  0
   -1.0323   -0.7500    0.0000 C   0  0  0  0  0  0  0  0  0  0  0  0
   -1.0323    0.7500    0.0000 C   0  0  0  0  0  0  0  0  0  0  0  0
  1  2  1  0
  2  3  1  0
  3  4  2  0
  3  5  1  0
  5  6  1  0
  6  7  2  0
  7  8  1  0
  8  9  1  0
  9 10  1  0
 10 11  1  0
 11 12  1  0
 12 13  1  0
 10 14  2  0
 14 15  1  0
 15 16  1  0
 16 17  1  0
  8 18  2  0
 18 19  1  0
 19 20  1  0
 20 21  1  0
 21 22  2  0
 22 23  1  0
 23  6  1  0
 16  9  2  0
 23 19  2  0
 13 11  1  0
M  END
>  <Compound_ID>  (629) 
CHEMBL4129737

>  <Molecule Name>  (629) 
nan

>  <Molecular Weight>  (629) 
311.35

>  <AlogP>  (629) 
3.32

>  <Smiles>  (629) 
COC(=O)Nc1cc(-c2c(C3CC3)n[nH]c2C)cc2[nH]ncc12

>  <Standard Type>  (629) 
Inhibition

>  <Standard Relation>  (629) 
'='

>  <Standard Units>  (629) 
%

>  <Standard Value>  (629) 
1.3

>  <Assay ChEMBL ID>  (629) 
CHEMBL4120840

>  <Assay Description>  (629) 
Inhibition of TRKA (unknown origin) at 0.164 uM relative to control

>  <BAO Format ID>  (629) 
BAO_0000357

>  <BAO Label>  (629) 
single protein format

>  <Assay Organism>  (629) 
Homo sapiens

>  <Target ChEMBL ID>  (629) 
CHEMBL2815

>  <Target Name>  (629) 
Nerve growth factor receptor Trk-A

>  <Target Organism>  (629) 
Homo sapiens

>  <Target Type>  (629) 
SINGLE PROTEIN

>  <Document ChEMBL ID>  (629) 
CHEMBL4118098

>  <Source Description>  (629) 
Scientific Literature

>  <Document Journal>  (629) 
Bioorg Med Chem Lett

>  <Document Year>  (629) 
2017.0

>  <Active>  (629) 
0.0

>  <bits>  (629) 
<rdkit.DataStructs.cDataStructs.ExplicitBitVect object at 0x00000159F540C350>

>  <Group>  (629) 
G2

$$$$

     RDKit          2D

 20 22  0  0  0  0  0  0  0  0999 V2000
    4.5000    0.0000    0.0000 N   0  0  0  0  0  0  0  0  0  0  0  0
    3.0000    0.0000    0.0000 C   0  0  0  0  0  0  0  0  0  0  0  0
    1.5000    0.0000    0.0000 C   0  0  0  0  0  0  0  0  0  0  0  0
    0.7500   -1.2990    0.0000 C   0  0  0  0  0  0  0  0  0  0  0  0
   -0.7500   -1.2990    0.0000 C   0  0  0  0  0  0  0  0  0  0  0  0
   -1.5000    0.0000    0.0000 C   0  0  0  0  0  0  0  0  0  0  0  0
   -0.7500    1.2990    0.0000 C   0  0  0  0  0  0  0  0  0  0  0  0
   -1.5000    2.5981    0.0000 N   0  0  0  0  0  0  0  0  0  0  0  0
   -0.7500    3.8971    0.0000 C   0  0  0  0  0  0  0  0  0  0  0  0
   -1.3601    5.2674    0.0000 N   0  0  0  0  0  0  0  0  0  0  0  0
   -0.2454    6.2711    0.0000 C   0  0  0  0  0  0  0  0  0  0  0  0
    1.0537    5.5211    0.0000 C   0  0  0  0  0  0  0  0  0  0  0  0
    2.4240    6.1312    0.0000 C   0  0  0  0  0  0  0  0  0  0  0  0
    3.6375    5.2496    0.0000 C   0  0  0  0  0  0  0  0  0  0  0  0
    5.0078    5.8597    0.0000 C   0  0  0  0  0  0  0  0  0  0  0  0
    5.1646    7.3514    0.0000 C   0  0  0  0  0  0  0  0  0  0  0  0
    3.9511    8.2331    0.0000 C   0  0  0  0  0  0  0  0  0  0  0  0
    2.5808    7.6230    0.0000 C   0  0  0  0  0  0  0  0  0  0  0  0
    0.7418    4.0539    0.0000 O   0  0  0  0  0  0  0  0  0  0  0  0
    0.7500    1.2990    0.0000 C   0  0  0  0  0  0  0  0  0  0  0  0
  1  2  3  0
  2  3  1  0
  3  4  2  0
  4  5  1  0
  5  6  2  0
  6  7  1  0
  7  8  1  0
  8  9  1  0
  9 10  2  0
 10 11  1  0
 11 12  2  0
 12 13  1  0
 13 14  2  0
 14 15  1  0
 15 16  2  0
 16 17  1  0
 17 18  2  0
 12 19  1  0
  7 20  2  0
 20  3  1  0
 19  9  1  0
 18 13  1  0
M  END
>  <Compound_ID>  (630) 
CHEMBL1794061

>  <Molecule Name>  (630) 
GW627834A

>  <Molecular Weight>  (630) 
297.74

>  <AlogP>  (630) 
3.96

>  <Smiles>  (630) 
N#Cc1cccc(Nc2ncc(-c3ccccc3)o2)c1

>  <Standard Type>  (630) 
Inhibition

>  <Standard Relation>  (630) 
'='

>  <Standard Units>  (630) 
%

>  <Standard Value>  (630) 
-0.7

>  <Assay ChEMBL ID>  (630) 
CHEMBL1962184

>  <Assay Description>  (630) 
GSK_PKIS: TRKA mean inhibition at 0.1 uM [Nanosyn]

>  <BAO Format ID>  (630) 
BAO_0000357

>  <BAO Label>  (630) 
single protein format

>  <Assay Organism>  (630) 
None

>  <Target ChEMBL ID>  (630) 
CHEMBL2815

>  <Target Name>  (630) 
Nerve growth factor receptor Trk-A

>  <Target Organism>  (630) 
Homo sapiens

>  <Target Type>  (630) 
SINGLE PROTEIN

>  <Document ChEMBL ID>  (630) 
CHEMBL1961873

>  <Source Description>  (630) 
GSK Published Kinase Inhibitor Set

>  <Document Journal>  (630) 
nan

>  <Document Year>  (630) 
nan

>  <Active>  (630) 
0.0

>  <bits>  (630) 
<rdkit.DataStructs.cDataStructs.ExplicitBitVect object at 0x00000159F540C2E0>

>  <Group>  (630) 
G2

$$$$

     RDKit          2D

 37 42  0  0  0  0  0  0  0  0999 V2000
   -2.5981   -5.1073    0.0000 O   0  0  0  0  0  0  0  0  0  0  0  0
   -1.2990   -5.8573    0.0000 C   0  0  0  0  0  0  0  0  0  0  0  0
   -0.0000   -5.1073    0.0000 N   0  0  0  0  0  0  0  0  0  0  0  0
   -0.0000   -3.6073    0.0000 C   0  0  0  0  0  0  0  0  0  0  0  0
    1.2135   -2.7256    0.0000 C   0  0  0  0  0  0  0  0  0  0  0  0
    0.7500   -1.2990    0.0000 C   0  0  0  0  0  0  0  0  0  0  0  0
    1.5000    0.0000    0.0000 C   0  0  0  0  0  0  0  0  0  0  0  0
    0.7500    1.2990    0.0000 C   0  0  0  0  0  0  0  0  0  0  0  0
   -0.7500    1.2990    0.0000 C   0  0  0  0  0  0  0  0  0  0  0  0
   -1.5000    0.0000    0.0000 C   0  0  0  0  0  0  0  0  0  0  0  0
   -0.7500   -1.2990    0.0000 C   0  0  0  0  0  0  0  0  0  0  0  0
   -1.2135   -2.7256    0.0000 C   0  0  0  0  0  0  0  0  0  0  0  0
   -1.2990   -7.3573    0.0000 C   0  0  0  0  0  0  0  0  0  0  0  0
   -2.5981   -8.1073    0.0000 C   0  0  0  0  0  0  0  0  0  0  0  0
   -2.5981   -9.6073    0.0000 C   0  0  0  0  0  0  0  0  0  0  0  0
   -1.2990  -10.3573    0.0000 C   0  0  0  0  0  0  0  0  0  0  0  0
    0.0000   -9.6073    0.0000 C   0  0  0  0  0  0  0  0  0  0  0  0
    1.2990  -10.3573    0.0000 N   0  0  0  0  0  0  0  0  0  0  0  0
    1.2990  -11.8573    0.0000 C   0  0  0  0  0  0  0  0  0  0  0  0
    0.0000  -12.6073    0.0000 C   0  0  0  0  0  0  0  0  0  0  0  0
    0.0000  -14.1073    0.0000 C   0  0  0  0  0  0  0  0  0  0  0  0
    1.2990  -14.8573    0.0000 N   0  0  0  0  0  0  0  0  0  0  0  0
    2.5981  -14.1073    0.0000 C   0  0  0  0  0  0  0  0  0  0  0  0
    3.8971  -14.8573    0.0000 N   0  0  0  0  0  0  0  0  0  0  0  0
    3.8971  -16.3573    0.0000 C   0  0  0  0  0  0  0  0  0  0  0  0
    5.1962  -17.1073    0.0000 C   0  0  0  0  0  0  0  0  0  0  0  0
    6.4952  -16.3573    0.0000 N   0  0  0  0  0  0  0  0  0  0  0  0
    7.7942  -17.1073    0.0000 C   0  0  0  0  0  0  0  0  0  0  0  0
    7.7942  -18.6073    0.0000 C   0  0  0  0  0  0  0  0  0  0  0  0
    9.0933  -19.3573    0.0000 C   0  0  0  0  0  0  0  0  0  0  0  0
   10.3923  -18.6073    0.0000 C   0  0  0  0  0  0  0  0  0  0  0  0
   10.3923  -17.1073    0.0000 C   0  0  0  0  0  0  0  0  0  0  0  0
    9.0933  -16.3573    0.0000 C   0  0  0  0  0  0  0  0  0  0  0  0
    6.4952  -14.8573    0.0000 C   0  0  0  0  0  0  0  0  0  0  0  0
    5.1962  -14.1073    0.0000 C   0  0  0  0  0  0  0  0  0  0  0  0
    2.5981  -12.6073    0.0000 N   0  0  0  0  0  0  0  0  0  0  0  0
    0.0000   -8.1073    0.0000 C   0  0  0  0  0  0  0  0  0  0  0  0
  1  2  2  0
  2  3  1  0
  3  4  1  0
  4  5  1  0
  5  6  1  0
  6  7  2  0
  7  8  1  0
  8  9  2  0
  9 10  1  0
 10 11  2  0
 11 12  1  0
  2 13  1  0
 13 14  2  0
 14 15  1  0
 15 16  2  0
 16 17  1  0
 17 18  1  0
 18 19  1  0
 19 20  2  0
 20 21  1  0
 21 22  2  0
 22 23  1  0
 23 24  1  0
 24 25  1  0
 25 26  1  0
 26 27  1  0
 27 28  1  0
 28 29  2  0
 29 30  1  0
 30 31  2  0
 31 32  1  0
 32 33  2  0
 27 34  1  0
 34 35  1  0
 23 36  2  0
 17 37  2  0
 12  4  1  0
 37 13  1  0
 11  6  1  0
 36 19  1  0
 35 24  1  0
 33 28  1  0
M  END
>  <Compound_ID>  (631) 
CHEMBL499624

>  <Molecule Name>  (631) 
nan

>  <Molecular Weight>  (631) 
490.61

>  <AlogP>  (631) 
4.44

>  <Smiles>  (631) 
O=C(NC1Cc2ccccc2C1)c1cccc(Nc2ccnc(N3CCN(c4ccccc4)CC3)n2)c1

>  <Standard Type>  (631) 
Inhibition

>  <Standard Relation>  (631) 
'='

>  <Standard Units>  (631) 
%

>  <Standard Value>  (631) 
5.0

>  <Assay ChEMBL ID>  (631) 
CHEMBL965679

>  <Assay Description>  (631) 
Inhibition of TrkA at 10 uM by HTRF assay relative to control

>  <BAO Format ID>  (631) 
BAO_0000357

>  <BAO Label>  (631) 
single protein format

>  <Assay Organism>  (631) 
None

>  <Target ChEMBL ID>  (631) 
CHEMBL2815

>  <Target Name>  (631) 
Nerve growth factor receptor Trk-A

>  <Target Organism>  (631) 
Homo sapiens

>  <Target Type>  (631) 
SINGLE PROTEIN

>  <Document ChEMBL ID>  (631) 
CHEMBL1150387

>  <Source Description>  (631) 
Scientific Literature

>  <Document Journal>  (631) 
J Med Chem

>  <Document Year>  (631) 
2008.0

>  <Active>  (631) 
0.0

>  <bits>  (631) 
<rdkit.DataStructs.cDataStructs.ExplicitBitVect object at 0x00000159F540C200>

>  <Group>  (631) 
G2

$$$$

     RDKit          2D

 27 29  0  0  0  0  0  0  0  0999 V2000
    4.5000   -2.5981    0.0000 C   0  0  0  0  0  0  0  0  0  0  0  0
    3.7500   -1.2990    0.0000 S   0  0  0  0  0  0  0  0  0  0  0  0
    2.4510   -2.0490    0.0000 O   0  0  0  0  0  0  0  0  0  0  0  0
    5.0490   -0.5490    0.0000 O   0  0  0  0  0  0  0  0  0  0  0  0
    3.0000    0.0000    0.0000 N   0  0  0  0  0  0  0  0  0  0  0  0
    1.5000    0.0000    0.0000 C   0  0  0  0  0  0  0  0  0  0  0  0
    0.7500   -1.2990    0.0000 C   0  0  0  0  0  0  0  0  0  0  0  0
   -0.7500   -1.2990    0.0000 C   0  0  0  0  0  0  0  0  0  0  0  0
   -1.5000    0.0000    0.0000 C   0  0  0  0  0  0  0  0  0  0  0  0
   -3.0000    0.0000    0.0000 C   0  0  0  0  0  0  0  0  0  0  0  0
   -3.7500    1.2990    0.0000 C   0  0  0  0  0  0  0  0  0  0  0  0
   -5.2500    1.2990    0.0000 C   0  0  0  0  0  0  0  0  0  0  0  0
   -6.0000    2.5981    0.0000 C   0  0  0  0  0  0  0  0  0  0  0  0
   -5.2500    3.8971    0.0000 C   0  0  0  0  0  0  0  0  0  0  0  0
   -6.0000    5.1962    0.0000 C   0  0  0  0  0  0  0  0  0  0  0  0
   -7.5000    5.1962    0.0000 C   0  0  0  0  0  0  0  0  0  0  0  0
   -8.2500    3.8971    0.0000 C   0  0  0  0  0  0  0  0  0  0  0  0
   -7.5000    2.5981    0.0000 C   0  0  0  0  0  0  0  0  0  0  0  0
   -6.0000    0.0000    0.0000 C   0  0  0  0  0  0  0  0  0  0  0  0
   -5.2500   -1.2990    0.0000 C   0  0  0  0  0  0  0  0  0  0  0  0
   -6.0000   -2.5981    0.0000 C   0  0  0  0  0  0  0  0  0  0  0  0
   -7.5000   -2.5981    0.0000 N   0  0  0  0  0  0  0  0  0  0  0  0
   -5.2500   -3.8971    0.0000 O   0  0  0  0  0  0  0  0  0  0  0  0
   -3.7500   -1.2990    0.0000 C   0  0  0  0  0  0  0  0  0  0  0  0
   -3.0000   -2.5981    0.0000 N   0  0  0  0  0  0  0  0  0  0  0  0
   -0.7500    1.2990    0.0000 C   0  0  0  0  0  0  0  0  0  0  0  0
    0.7500    1.2990    0.0000 C   0  0  0  0  0  0  0  0  0  0  0  0
  1  2  1  0
  2  3  2  0
  2  4  2  0
  2  5  1  0
  5  6  1  0
  6  7  2  0
  7  8  1  0
  8  9  2  0
  9 10  1  0
 10 11  2  0
 11 12  1  0
 12 13  1  0
 13 14  2  0
 14 15  1  0
 15 16  2  0
 16 17  1  0
 17 18  2  0
 12 19  2  0
 19 20  1  0
 20 21  1  0
 21 22  1  0
 21 23  2  0
 20 24  2  0
 24 25  1  0
  9 26  1  0
 26 27  2  0
 27  6  1  0
 24 10  1  0
 18 13  1  0
M  END
>  <Compound_ID>  (632) 
CHEMBL230597

>  <Molecule Name>  (632) 
GSK-586581A

>  <Molecular Weight>  (632) 
381.46

>  <AlogP>  (632) 
3.07

>  <Smiles>  (632) 
CS(=O)(=O)Nc1ccc(-c2cc(-c3ccccc3)cc(C(N)=O)c2N)cc1

>  <Standard Type>  (632) 
Inhibition

>  <Standard Relation>  (632) 
'='

>  <Standard Units>  (632) 
%

>  <Standard Value>  (632) 
3.2

>  <Assay ChEMBL ID>  (632) 
CHEMBL1962184

>  <Assay Description>  (632) 
GSK_PKIS: TRKA mean inhibition at 0.1 uM [Nanosyn]

>  <BAO Format ID>  (632) 
BAO_0000357

>  <BAO Label>  (632) 
single protein format

>  <Assay Organism>  (632) 
None

>  <Target ChEMBL ID>  (632) 
CHEMBL2815

>  <Target Name>  (632) 
Nerve growth factor receptor Trk-A

>  <Target Organism>  (632) 
Homo sapiens

>  <Target Type>  (632) 
SINGLE PROTEIN

>  <Document ChEMBL ID>  (632) 
CHEMBL1961873

>  <Source Description>  (632) 
GSK Published Kinase Inhibitor Set

>  <Document Journal>  (632) 
nan

>  <Document Year>  (632) 
nan

>  <Active>  (632) 
0.0

>  <bits>  (632) 
<rdkit.DataStructs.cDataStructs.ExplicitBitVect object at 0x00000159F540D5B0>

>  <Group>  (632) 
G2

$$$$

     RDKit          2D

 40 44  0  0  0  0  0  0  0  0999 V2000
   -3.7500   -6.4952    0.0000 O   0  0  0  0  0  0  0  0  0  0  0  0
   -3.0000   -7.7942    0.0000 C   0  0  0  0  0  0  0  0  0  0  0  0
   -1.5000   -7.7942    0.0000 N   0  0  0  0  0  0  0  0  0  0  0  0
   -0.7500   -6.4952    0.0000 C   0  0  0  0  0  0  0  0  0  0  0  0
    0.7500   -6.4952    0.0000 C   0  0  0  0  0  0  0  0  0  0  0  0
    1.5000   -5.1962    0.0000 C   0  0  0  0  0  0  0  0  0  0  0  0
    0.7500   -3.8971    0.0000 C   0  0  0  0  0  0  0  0  0  0  0  0
    1.5000   -2.5981    0.0000 O   0  0  0  0  0  0  0  0  0  0  0  0
    0.7500   -1.2990    0.0000 C   0  0  0  0  0  0  0  0  0  0  0  0
    1.5000    0.0000    0.0000 C   0  0  0  0  0  0  0  0  0  0  0  0
    0.7500    1.2990    0.0000 C   0  0  0  0  0  0  0  0  0  0  0  0
   -0.7500    1.2990    0.0000 C   0  0  0  0  0  0  0  0  0  0  0  0
   -1.7537    2.4138    0.0000 N   0  0  0  0  0  0  0  0  0  0  0  0
   -3.1240    1.8037    0.0000 C   0  0  0  0  0  0  0  0  0  0  0  0
   -4.4231    2.5537    0.0000 N   0  0  0  0  0  0  0  0  0  0  0  0
   -4.4231    4.0537    0.0000 C   0  0  0  0  0  0  0  0  0  0  0  0
   -3.1240    4.8037    0.0000 O   0  0  0  0  0  0  0  0  0  0  0  0
   -5.7221    4.8037    0.0000 C   0  0  0  0  0  0  0  0  0  0  0  0
   -5.7221    6.3037    0.0000 C   0  0  0  0  0  0  0  0  0  0  0  0
   -7.0211    7.0537    0.0000 C   0  0  0  0  0  0  0  0  0  0  0  0
   -8.3202    6.3037    0.0000 C   0  0  0  0  0  0  0  0  0  0  0  0
   -8.3202    4.8037    0.0000 C   0  0  0  0  0  0  0  0  0  0  0  0
   -7.0211    4.0537    0.0000 C   0  0  0  0  0  0  0  0  0  0  0  0
   -2.9672    0.3119    0.0000 N   0  0  0  0  0  0  0  0  0  0  0  0
   -1.5000    0.0000    0.0000 C   0  0  0  0  0  0  0  0  0  0  0  0
   -0.7500   -1.2990    0.0000 C   0  0  0  0  0  0  0  0  0  0  0  0
   -0.7500   -3.8971    0.0000 C   0  0  0  0  0  0  0  0  0  0  0  0
   -1.5000   -5.1962    0.0000 C   0  0  0  0  0  0  0  0  0  0  0  0
   -3.7500   -9.0933    0.0000 N   0  0  0  0  0  0  0  0  0  0  0  0
   -5.2500   -9.0933    0.0000 C   0  0  0  0  0  0  0  0  0  0  0  0
   -6.0000   -7.7942    0.0000 C   0  0  0  0  0  0  0  0  0  0  0  0
   -7.5000   -7.7942    0.0000 C   0  0  0  0  0  0  0  0  0  0  0  0
   -8.2500   -6.4952    0.0000 C   0  0  0  0  0  0  0  0  0  0  0  0
   -9.0000   -5.1962    0.0000 F   0  0  0  0  0  0  0  0  0  0  0  0
   -6.9510   -5.7452    0.0000 F   0  0  0  0  0  0  0  0  0  0  0  0
   -9.5490   -7.2452    0.0000 F   0  0  0  0  0  0  0  0  0  0  0  0
   -8.2500   -9.0933    0.0000 C   0  0  0  0  0  0  0  0  0  0  0  0
   -7.5000  -10.3923    0.0000 C   0  0  0  0  0  0  0  0  0  0  0  0
   -6.0000  -10.3923    0.0000 C   0  0  0  0  0  0  0  0  0  0  0  0
   -5.2500  -11.6913    0.0000 F   0  0  0  0  0  0  0  0  0  0  0  0
  1  2  2  0
  2  3  1  0
  3  4  1  0
  4  5  2  0
  5  6  1  0
  6  7  2  0
  7  8  1  0
  8  9  1  0
  9 10  2  0
 10 11  1  0
 11 12  2  0
 12 13  1  0
 13 14  1  0
 14 15  1  0
 15 16  1  0
 16 17  2  0
 16 18  1  0
 18 19  2  0
 19 20  1  0
 20 21  2  0
 21 22  1  0
 22 23  2  0
 14 24  2  0
 24 25  1  0
 25 26  2  0
  7 27  1  0
 27 28  2  0
  2 29  1  0
 29 30  1  0
 30 31  2  0
 31 32  1  0
 32 33  1  0
 33 34  1  0
 33 35  1  0
 33 36  1  0
 32 37  2  0
 37 38  1  0
 38 39  2  0
 39 40  1  0
 28  4  1  0
 39 30  1  0
 26  9  1  0
 25 12  1  0
 23 18  1  0
M  END
>  <Compound_ID>  (633) 
CHEMBL1909374

>  <Molecule Name>  (633) 
GW709042A

>  <Molecular Weight>  (633) 
585.95

>  <AlogP>  (633) 
7.41

>  <Smiles>  (633) 
O=C(Nc1ccc(Oc2ccc3[nH]c(NC(=O)c4ccccc4)nc3c2)cc1)Nc1cc(C(F)(F)F)ccc1F

>  <Standard Type>  (633) 
Inhibition

>  <Standard Relation>  (633) 
'='

>  <Standard Units>  (633) 
%

>  <Standard Value>  (633) 
5.99

>  <Assay ChEMBL ID>  (633) 
CHEMBL1962184

>  <Assay Description>  (633) 
GSK_PKIS: TRKA mean inhibition at 0.1 uM [Nanosyn]

>  <BAO Format ID>  (633) 
BAO_0000357

>  <BAO Label>  (633) 
single protein format

>  <Assay Organism>  (633) 
None

>  <Target ChEMBL ID>  (633) 
CHEMBL2815

>  <Target Name>  (633) 
Nerve growth factor receptor Trk-A

>  <Target Organism>  (633) 
Homo sapiens

>  <Target Type>  (633) 
SINGLE PROTEIN

>  <Document ChEMBL ID>  (633) 
CHEMBL1961873

>  <Source Description>  (633) 
GSK Published Kinase Inhibitor Set

>  <Document Journal>  (633) 
nan

>  <Document Year>  (633) 
nan

>  <Active>  (633) 
0.0

>  <bits>  (633) 
<rdkit.DataStructs.cDataStructs.ExplicitBitVect object at 0x00000159F540C740>

>  <Group>  (633) 
G2

$$$$

     RDKit          2D

 28 31  0  0  0  0  0  0  0  0999 V2000
    3.0000    0.0000    0.0000 N   0  0  0  0  0  0  0  0  0  0  0  0
    1.5000    0.0000    0.0000 C   0  0  0  0  0  0  0  0  0  0  0  0
    0.7500   -1.2990    0.0000 N   0  0  0  0  0  0  0  0  0  0  0  0
   -0.7500   -1.2990    0.0000 C   0  0  0  0  0  0  0  0  0  0  0  0
   -1.5000    0.0000    0.0000 C   0  0  0  0  0  0  0  0  0  0  0  0
   -0.7500    1.2990    0.0000 C   0  0  0  0  0  0  0  0  0  0  0  0
   -1.5000    2.5981    0.0000 C   0  0  0  0  0  0  0  0  0  0  0  0
   -2.9918    2.7549    0.0000 C   0  0  0  0  0  0  0  0  0  0  0  0
   -3.9955    1.6402    0.0000 C   0  0  0  0  0  0  0  0  0  0  0  0
   -5.4627    1.9520    0.0000 C   0  0  0  0  0  0  0  0  0  0  0  0
   -6.4664    0.8373    0.0000 C   0  0  0  0  0  0  0  0  0  0  0  0
   -6.0029   -0.5893    0.0000 C   0  0  0  0  0  0  0  0  0  0  0  0
   -7.0066   -1.7040    0.0000 F   0  0  0  0  0  0  0  0  0  0  0  0
   -4.5356   -0.9012    0.0000 C   0  0  0  0  0  0  0  0  0  0  0  0
   -3.5320    0.2136    0.0000 C   0  0  0  0  0  0  0  0  0  0  0  0
   -3.3037    4.2221    0.0000 N   0  0  0  0  0  0  0  0  0  0  0  0
   -2.0046    4.9721    0.0000 C   0  0  0  0  0  0  0  0  0  0  0  0
   -0.8899    3.9684    0.0000 N   0  0  0  0  0  0  0  0  0  0  0  0
    0.5773    4.2803    0.0000 C   0  0  0  0  0  0  0  0  0  0  0  0
    1.0409    5.7068    0.0000 C   0  0  0  0  0  0  0  0  0  0  0  0
    2.5081    6.0187    0.0000 C   0  0  0  0  0  0  0  0  0  0  0  0
    2.9716    7.4453    0.0000 N   0  0  0  0  0  0  0  0  0  0  0  0
    4.4388    7.7572    0.0000 C   0  0  0  0  0  0  0  0  0  0  0  0
    4.9023    9.1838    0.0000 C   0  0  0  0  0  0  0  0  0  0  0  0
    3.8986   10.2985    0.0000 O   0  0  0  0  0  0  0  0  0  0  0  0
    2.4314    9.9866    0.0000 C   0  0  0  0  0  0  0  0  0  0  0  0
    1.9679    8.5600    0.0000 C   0  0  0  0  0  0  0  0  0  0  0  0
    0.7500    1.2990    0.0000 N   0  0  0  0  0  0  0  0  0  0  0  0
  1  2  1  0
  2  3  2  0
  3  4  1  0
  4  5  2  0
  5  6  1  0
  6  7  1  0
  7  8  2  0
  8  9  1  0
  9 10  2  0
 10 11  1  0
 11 12  2  0
 12 13  1  0
 12 14  1  0
 14 15  2  0
  8 16  1  0
 16 17  2  0
 17 18  1  0
 18 19  1  0
 19 20  1  0
 20 21  1  0
 21 22  1  0
 22 23  1  0
 23 24  1  0
 24 25  1  0
 25 26  1  0
 26 27  1  0
  6 28  2  0
 28  2  1  0
 18  7  1  0
 27 22  1  0
 15  9  1  0
M  END
>  <Compound_ID>  (634) 
CHEMBL274863

>  <Molecule Name>  (634) 
nan

>  <Molecular Weight>  (634) 
382.44

>  <AlogP>  (634) 
2.45

>  <Smiles>  (634) 
Nc1nccc(-c2c(-c3ccc(F)cc3)ncn2CCCN2CCOCC2)n1

>  <Standard Type>  (634) 
Inhibition

>  <Standard Relation>  (634) 
'='

>  <Standard Units>  (634) 
%

>  <Standard Value>  (634) 
-0.29

>  <Assay ChEMBL ID>  (634) 
CHEMBL1962184

>  <Assay Description>  (634) 
GSK_PKIS: TRKA mean inhibition at 0.1 uM [Nanosyn]

>  <BAO Format ID>  (634) 
BAO_0000357

>  <BAO Label>  (634) 
single protein format

>  <Assay Organism>  (634) 
None

>  <Target ChEMBL ID>  (634) 
CHEMBL2815

>  <Target Name>  (634) 
Nerve growth factor receptor Trk-A

>  <Target Organism>  (634) 
Homo sapiens

>  <Target Type>  (634) 
SINGLE PROTEIN

>  <Document ChEMBL ID>  (634) 
CHEMBL1961873

>  <Source Description>  (634) 
GSK Published Kinase Inhibitor Set

>  <Document Journal>  (634) 
nan

>  <Document Year>  (634) 
nan

>  <Active>  (634) 
0.0

>  <bits>  (634) 
<rdkit.DataStructs.cDataStructs.ExplicitBitVect object at 0x00000159F540E960>

>  <Group>  (634) 
G2

$$$$

     RDKit          2D

 38 43  0  0  0  0  0  0  0  0999 V2000
   -3.7500   -3.8971    0.0000 C   0  0  0  0  0  0  0  0  0  0  0  0
   -3.0000   -2.5981    0.0000 N   0  0  0  0  0  0  0  0  0  0  0  0
   -3.7500   -1.2990    0.0000 C   0  0  0  0  0  0  0  0  0  0  0  0
   -1.5000   -2.5981    0.0000 C   0  0  0  0  0  0  0  0  0  0  0  0
   -0.7500   -3.8971    0.0000 C   0  0  0  0  0  0  0  0  0  0  0  0
    0.7500   -3.8971    0.0000 C   0  0  0  0  0  0  0  0  0  0  0  0
    1.5000   -2.5981    0.0000 C   0  0  0  0  0  0  0  0  0  0  0  0
    3.0000   -2.5981    0.0000 C   0  0  0  0  0  0  0  0  0  0  0  0
    3.7500   -1.2990    0.0000 O   0  0  0  0  0  0  0  0  0  0  0  0
    3.7500   -3.8971    0.0000 N   0  0  0  0  0  0  0  0  0  0  0  0
    3.0000   -5.1962    0.0000 C   0  0  0  0  0  0  0  0  0  0  0  0
    3.7500   -6.4952    0.0000 C   0  0  0  0  0  0  0  0  0  0  0  0
    5.2500   -6.4952    0.0000 N   0  0  0  0  0  0  0  0  0  0  0  0
    6.0000   -7.7942    0.0000 C   0  0  0  0  0  0  0  0  0  0  0  0
    5.2500   -9.0933    0.0000 N   0  0  0  0  0  0  0  0  0  0  0  0
    6.0000  -10.3923    0.0000 C   0  0  0  0  0  0  0  0  0  0  0  0
    7.5000  -10.3923    0.0000 N   0  0  0  0  0  0  0  0  0  0  0  0
    8.2500   -9.0933    0.0000 C   0  0  0  0  0  0  0  0  0  0  0  0
    7.5000   -7.7942    0.0000 C   0  0  0  0  0  0  0  0  0  0  0  0
    8.2500   -6.4952    0.0000 C   0  0  0  0  0  0  0  0  0  0  0  0
    9.7500   -6.4952    0.0000 N   0  0  0  0  0  0  0  0  0  0  0  0
   10.5000   -5.1962    0.0000 C   0  0  0  0  0  0  0  0  0  0  0  0
   12.0000   -5.1962    0.0000 C   0  0  0  0  0  0  0  0  0  0  0  0
   12.7500   -6.4952    0.0000 C   0  0  0  0  0  0  0  0  0  0  0  0
   14.2500   -6.4952    0.0000 C   0  0  0  0  0  0  0  0  0  0  0  0
   15.0000   -5.1962    0.0000 C   0  0  0  0  0  0  0  0  0  0  0  0
   14.2500   -3.8971    0.0000 C   0  0  0  0  0  0  0  0  0  0  0  0
   12.7500   -3.8971    0.0000 C   0  0  0  0  0  0  0  0  0  0  0  0
   10.5000   -7.7942    0.0000 C   0  0  0  0  0  0  0  0  0  0  0  0
    9.7500   -9.0933    0.0000 C   0  0  0  0  0  0  0  0  0  0  0  0
    6.0000   -5.1962    0.0000 C   0  0  0  0  0  0  0  0  0  0  0  0
    5.2500   -3.8971    0.0000 C   0  0  0  0  0  0  0  0  0  0  0  0
    0.7500   -1.2990    0.0000 C   0  0  0  0  0  0  0  0  0  0  0  0
    1.5000    0.0000    0.0000 C   0  0  0  0  0  0  0  0  0  0  0  0
    0.7500    1.2990    0.0000 C   0  0  0  0  0  0  0  0  0  0  0  0
   -0.7500    1.2990    0.0000 C   0  0  0  0  0  0  0  0  0  0  0  0
   -1.5000    0.0000    0.0000 C   0  0  0  0  0  0  0  0  0  0  0  0
   -0.7500   -1.2990    0.0000 C   0  0  0  0  0  0  0  0  0  0  0  0
  1  2  1  0
  2  3  1  0
  2  4  1  0
  4  5  2  0
  5  6  1  0
  6  7  2  0
  7  8  1  0
  8  9  2  0
  8 10  1  0
 10 11  1  0
 11 12  1  0
 12 13  1  0
 13 14  1  0
 14 15  2  0
 15 16  1  0
 16 17  2  0
 17 18  1  0
 18 19  2  0
 19 20  1  0
 20 21  1  0
 21 22  1  0
 22 23  1  0
 23 24  2  0
 24 25  1  0
 25 26  2  0
 26 27  1  0
 27 28  2  0
 21 29  1  0
 29 30  1  0
 13 31  1  0
 31 32  1  0
  7 33  1  0
 33 34  2  0
 34 35  1  0
 35 36  2  0
 36 37  1  0
 37 38  2  0
 38  4  1  0
 32 10  1  0
 38 33  1  0
 19 14  1  0
 28 23  1  0
 30 18  1  0
M  END
>  <Compound_ID>  (635) 
CHEMBL520331

>  <Molecule Name>  (635) 
nan

>  <Molecular Weight>  (635) 
506.65

>  <AlogP>  (635) 
4.22

>  <Smiles>  (635) 
CN(C)c1ccc(C(=O)N2CCN(c3ncnc4c3CN(Cc3ccccc3)CC4)CC2)c2ccccc12

>  <Standard Type>  (635) 
Inhibition

>  <Standard Relation>  (635) 
'='

>  <Standard Units>  (635) 
%

>  <Standard Value>  (635) 
7.0

>  <Assay ChEMBL ID>  (635) 
CHEMBL965679

>  <Assay Description>  (635) 
Inhibition of TrkA at 10 uM by HTRF assay relative to control

>  <BAO Format ID>  (635) 
BAO_0000357

>  <BAO Label>  (635) 
single protein format

>  <Assay Organism>  (635) 
None

>  <Target ChEMBL ID>  (635) 
CHEMBL2815

>  <Target Name>  (635) 
Nerve growth factor receptor Trk-A

>  <Target Organism>  (635) 
Homo sapiens

>  <Target Type>  (635) 
SINGLE PROTEIN

>  <Document ChEMBL ID>  (635) 
CHEMBL1150387

>  <Source Description>  (635) 
Scientific Literature

>  <Document Journal>  (635) 
J Med Chem

>  <Document Year>  (635) 
2008.0

>  <Active>  (635) 
0.0

>  <bits>  (635) 
<rdkit.DataStructs.cDataStructs.ExplicitBitVect object at 0x00000159F540F060>

>  <Group>  (635) 
G2

$$$$

     RDKit          2D

 29 32  0  0  0  0  0  0  0  0999 V2000
    5.3228   -7.2195    0.0000 C   0  0  0  0  0  0  0  0  0  0  0  0
    6.0728   -5.9204    0.0000 O   0  0  0  0  0  0  0  0  0  0  0  0
    5.3228   -4.6214    0.0000 C   0  0  0  0  0  0  0  0  0  0  0  0
    6.0728   -3.3223    0.0000 C   0  0  0  0  0  0  0  0  0  0  0  0
    7.5646   -3.1655    0.0000 C   0  0  0  0  0  0  0  0  0  0  0  0
    7.8765   -1.6983    0.0000 C   0  0  0  0  0  0  0  0  0  0  0  0
    6.5774   -0.9483    0.0000 C   0  0  0  0  0  0  0  0  0  0  0  0
    5.4627   -1.9520    0.0000 N   0  0  0  0  0  0  0  0  0  0  0  0
    3.9955   -1.6402    0.0000 C   0  0  0  0  0  0  0  0  0  0  0  0
    3.5320   -0.2136    0.0000 O   0  0  0  0  0  0  0  0  0  0  0  0
    2.9918   -2.7549    0.0000 C   0  0  0  0  0  0  0  0  0  0  0  0
    3.3037   -4.2221    0.0000 C   0  0  0  0  0  0  0  0  0  0  0  0
    2.0046   -4.9721    0.0000 C   0  0  0  0  0  0  0  0  0  0  0  0
    0.8899   -3.9684    0.0000 C   0  0  0  0  0  0  0  0  0  0  0  0
    1.5000   -2.5981    0.0000 N   0  0  0  0  0  0  0  0  0  0  0  0
    0.7500   -1.2990    0.0000 C   0  0  0  0  0  0  0  0  0  0  0  0
    1.5000    0.0000    0.0000 C   0  0  0  0  0  0  0  0  0  0  0  0
    0.7500    1.2990    0.0000 C   0  0  0  0  0  0  0  0  0  0  0  0
    1.5000    2.5981    0.0000 N   0  0  0  0  0  0  0  0  0  0  0  0
    3.0000    2.5981    0.0000 C   0  0  0  0  0  0  0  0  0  0  0  0
    3.7500    1.2990    0.0000 C   0  0  0  0  0  0  0  0  0  0  0  0
    5.2500    1.2990    0.0000 C   0  0  0  0  0  0  0  0  0  0  0  0
    6.0000    2.5981    0.0000 C   0  0  0  0  0  0  0  0  0  0  0  0
    5.2500    3.8971    0.0000 C   0  0  0  0  0  0  0  0  0  0  0  0
    6.0000    5.1962    0.0000 Br  0  0  0  0  0  0  0  0  0  0  0  0
    3.7500    3.8971    0.0000 C   0  0  0  0  0  0  0  0  0  0  0  0
   -0.7500    1.2990    0.0000 N   0  0  0  0  0  0  0  0  0  0  0  0
   -1.5000    0.0000    0.0000 C   0  0  0  0  0  0  0  0  0  0  0  0
   -0.7500   -1.2990    0.0000 N   0  0  0  0  0  0  0  0  0  0  0  0
  1  2  1  0
  2  3  1  0
  4  3  1  1
  4  5  1  0
  5  6  1  0
  6  7  1  0
  7  8  1  0
  8  9  1  0
  9 10  2  0
  9 11  1  0
 11 12  1  0
 12 13  1  0
 13 14  1  0
 14 15  1  0
 15 16  1  0
 16 17  2  0
 17 18  1  0
 18 19  1  0
 19 20  1  0
 20 21  2  0
 21 22  1  0
 22 23  2  0
 23 24  1  0
 24 25  1  0
 24 26  2  0
 18 27  2  0
 27 28  1  0
 28 29  2  0
  8  4  1  0
 15 11  1  0
 29 16  1  0
 26 20  1  0
M  END
>  <Compound_ID>  (636) 
CHEMBL484521

>  <Molecule Name>  (636) 
nan

>  <Molecular Weight>  (636) 
460.38

>  <AlogP>  (636) 
3.59

>  <Smiles>  (636) 
COC[C@@H]1CCCN1C(=O)C1CCCN1c1cc(Nc2cccc(Br)c2)ncn1

>  <Standard Type>  (636) 
Inhibition

>  <Standard Relation>  (636) 
'='

>  <Standard Units>  (636) 
%

>  <Standard Value>  (636) 
8.0

>  <Assay ChEMBL ID>  (636) 
CHEMBL965679

>  <Assay Description>  (636) 
Inhibition of TrkA at 10 uM by HTRF assay relative to control

>  <BAO Format ID>  (636) 
BAO_0000357

>  <BAO Label>  (636) 
single protein format

>  <Assay Organism>  (636) 
None

>  <Target ChEMBL ID>  (636) 
CHEMBL2815

>  <Target Name>  (636) 
Nerve growth factor receptor Trk-A

>  <Target Organism>  (636) 
Homo sapiens

>  <Target Type>  (636) 
SINGLE PROTEIN

>  <Document ChEMBL ID>  (636) 
CHEMBL1150387

>  <Source Description>  (636) 
Scientific Literature

>  <Document Journal>  (636) 
J Med Chem

>  <Document Year>  (636) 
2008.0

>  <Active>  (636) 
0.0

>  <bits>  (636) 
<rdkit.DataStructs.cDataStructs.ExplicitBitVect object at 0x00000159F540FD80>

>  <Group>  (636) 
G2

$$$$

     RDKit          2D

 19 21  0  0  0  0  0  0  0  0999 V2000
    3.0000    0.0000    0.0000 C   0  0  0  0  0  0  0  0  0  0  0  0
    1.5000    0.0000    0.0000 C   0  0  0  0  0  0  0  0  0  0  0  0
    0.7500   -1.2990    0.0000 C   0  0  0  0  0  0  0  0  0  0  0  0
   -0.7500   -1.2990    0.0000 C   0  0  0  0  0  0  0  0  0  0  0  0
   -1.5000    0.0000    0.0000 C   0  0  0  0  0  0  0  0  0  0  0  0
   -0.7500    1.2990    0.0000 C   0  0  0  0  0  0  0  0  0  0  0  0
   -1.5000    2.5981    0.0000 N   0  0  0  0  0  0  0  0  0  0  0  0
   -0.7500    3.8971    0.0000 C   0  0  0  0  0  0  0  0  0  0  0  0
   -1.3601    5.2674    0.0000 N   0  0  0  0  0  0  0  0  0  0  0  0
   -0.2454    6.2711    0.0000 C   0  0  0  0  0  0  0  0  0  0  0  0
    1.0537    5.5211    0.0000 C   0  0  0  0  0  0  0  0  0  0  0  0
    2.4240    6.1312    0.0000 C   0  0  0  0  0  0  0  0  0  0  0  0
    3.6375    5.2496    0.0000 C   0  0  0  0  0  0  0  0  0  0  0  0
    5.0078    5.8597    0.0000 C   0  0  0  0  0  0  0  0  0  0  0  0
    5.1646    7.3514    0.0000 C   0  0  0  0  0  0  0  0  0  0  0  0
    3.9511    8.2331    0.0000 C   0  0  0  0  0  0  0  0  0  0  0  0
    2.5808    7.6230    0.0000 C   0  0  0  0  0  0  0  0  0  0  0  0
    0.7418    4.0539    0.0000 O   0  0  0  0  0  0  0  0  0  0  0  0
    0.7500    1.2990    0.0000 C   0  0  0  0  0  0  0  0  0  0  0  0
  1  2  1  0
  2  3  2  0
  3  4  1  0
  4  5  2  0
  5  6  1  0
  6  7  1  0
  7  8  1  0
  8  9  2  0
  9 10  1  0
 10 11  2  0
 11 12  1  0
 12 13  2  0
 13 14  1  0
 14 15  2  0
 15 16  1  0
 16 17  2  0
 11 18  1  0
  6 19  2  0
 19  2  1  0
 18  8  1  0
 17 12  1  0
M  END
>  <Compound_ID>  (637) 
CHEMBL192417

>  <Molecule Name>  (637) 
GW632046X

>  <Molecular Weight>  (637) 
250.3

>  <AlogP>  (637) 
4.39

>  <Smiles>  (637) 
Cc1cccc(Nc2ncc(-c3ccccc3)o2)c1

>  <Standard Type>  (637) 
Inhibition

>  <Standard Relation>  (637) 
'='

>  <Standard Units>  (637) 
%

>  <Standard Value>  (637) 
6.23

>  <Assay ChEMBL ID>  (637) 
CHEMBL1962185

>  <Assay Description>  (637) 
GSK_PKIS: TRKA mean inhibition at 1 uM [Nanosyn]

>  <BAO Format ID>  (637) 
BAO_0000357

>  <BAO Label>  (637) 
single protein format

>  <Assay Organism>  (637) 
None

>  <Target ChEMBL ID>  (637) 
CHEMBL2815

>  <Target Name>  (637) 
Nerve growth factor receptor Trk-A

>  <Target Organism>  (637) 
Homo sapiens

>  <Target Type>  (637) 
SINGLE PROTEIN

>  <Document ChEMBL ID>  (637) 
CHEMBL1961873

>  <Source Description>  (637) 
GSK Published Kinase Inhibitor Set

>  <Document Journal>  (637) 
nan

>  <Document Year>  (637) 
nan

>  <Active>  (637) 
0.0

>  <bits>  (637) 
<rdkit.DataStructs.cDataStructs.ExplicitBitVect object at 0x00000159F540F610>

>  <Group>  (637) 
G2

$$$$

     RDKit          2D

 32 35  0  0  0  0  0  0  0  0999 V2000
    5.2500   -1.2990    0.0000 C   0  0  0  0  0  0  0  0  0  0  0  0
    3.7500   -1.2990    0.0000 N   0  0  0  0  0  0  0  0  0  0  0  0
    3.0000    0.0000    0.0000 C   0  0  0  0  0  0  0  0  0  0  0  0
    3.7500    1.2990    0.0000 O   0  0  0  0  0  0  0  0  0  0  0  0
    1.5000    0.0000    0.0000 C   0  0  0  0  0  0  0  0  0  0  0  0
    0.7500   -1.2990    0.0000 C   0  0  0  0  0  0  0  0  0  0  0  0
   -0.7500   -1.2990    0.0000 C   0  0  0  0  0  0  0  0  0  0  0  0
   -1.5000   -2.5981    0.0000 C   0  0  0  0  0  0  0  0  0  0  0  0
   -3.0000   -2.5981    0.0000 C   0  0  0  0  0  0  0  0  0  0  0  0
   -3.7500   -3.8971    0.0000 C   0  0  0  0  0  0  0  0  0  0  0  0
   -3.0000   -5.1962    0.0000 C   0  0  0  0  0  0  0  0  0  0  0  0
   -3.7500   -6.4952    0.0000 F   0  0  0  0  0  0  0  0  0  0  0  0
   -1.5000   -5.1962    0.0000 C   0  0  0  0  0  0  0  0  0  0  0  0
   -0.7500   -3.8971    0.0000 C   0  0  0  0  0  0  0  0  0  0  0  0
   -1.5000    0.0000    0.0000 C   0  0  0  0  0  0  0  0  0  0  0  0
   -0.7500    1.2990    0.0000 C   0  0  0  0  0  0  0  0  0  0  0  0
   -1.5000    2.5981    0.0000 C   0  0  0  0  0  0  0  0  0  0  0  0
   -0.7500    3.8971    0.0000 C   0  0  0  0  0  0  0  0  0  0  0  0
   -1.5000    5.1962    0.0000 C   0  0  0  0  0  0  0  0  0  0  0  0
   -3.0000    5.1962    0.0000 C   0  0  0  0  0  0  0  0  0  0  0  0
   -3.7500    6.4952    0.0000 S   0  0  0  0  0  0  0  0  0  0  0  0
   -2.4510    7.2452    0.0000 O   0  0  0  0  0  0  0  0  0  0  0  0
   -5.0490    5.7452    0.0000 O   0  0  0  0  0  0  0  0  0  0  0  0
   -4.5000    7.7942    0.0000 N   0  0  0  0  0  0  0  0  0  0  0  0
   -5.9918    7.9510    0.0000 C   0  0  0  0  0  0  0  0  0  0  0  0
   -6.3037    9.4182    0.0000 C   0  0  0  0  0  0  0  0  0  0  0  0
   -5.0046   10.1682    0.0000 C   0  0  0  0  0  0  0  0  0  0  0  0
   -3.8899    9.1645    0.0000 C   0  0  0  0  0  0  0  0  0  0  0  0
   -3.7500    3.8971    0.0000 C   0  0  0  0  0  0  0  0  0  0  0  0
   -3.0000    2.5981    0.0000 C   0  0  0  0  0  0  0  0  0  0  0  0
    0.7500    1.2990    0.0000 C   0  0  0  0  0  0  0  0  0  0  0  0
    1.5000    2.5981    0.0000 N   0  0  0  0  0  0  0  0  0  0  0  0
  1  2  1  0
  2  3  1  0
  3  4  2  0
  3  5  1  0
  5  6  2  0
  6  7  1  0
  7  8  1  0
  8  9  2  0
  9 10  1  0
 10 11  2  0
 11 12  1  0
 11 13  1  0
 13 14  2  0
  7 15  2  0
 15 16  1  0
 16 17  1  0
 17 18  2  0
 18 19  1  0
 19 20  2  0
 20 21  1  0
 21 22  2  0
 21 23  2  0
 21 24  1  0
 24 25  1  0
 25 26  1  0
 26 27  1  0
 27 28  1  0
 20 29  1  0
 29 30  2  0
 16 31  2  0
 31 32  1  0
 31  5  1  0
 14  8  1  0
 30 17  1  0
 28 24  1  0
M  END
>  <Compound_ID>  (638) 
CHEMBL230592

>  <Molecule Name>  (638) 
GSK-635416A

>  <Molecular Weight>  (638) 
453.54

>  <AlogP>  (638) 
3.89

>  <Smiles>  (638) 
CNC(=O)c1cc(-c2ccc(F)cc2)cc(-c2ccc(S(=O)(=O)N3CCCC3)cc2)c1N

>  <Standard Type>  (638) 
Inhibition

>  <Standard Relation>  (638) 
'='

>  <Standard Units>  (638) 
%

>  <Standard Value>  (638) 
1.97

>  <Assay ChEMBL ID>  (638) 
CHEMBL1962184

>  <Assay Description>  (638) 
GSK_PKIS: TRKA mean inhibition at 0.1 uM [Nanosyn]

>  <BAO Format ID>  (638) 
BAO_0000357

>  <BAO Label>  (638) 
single protein format

>  <Assay Organism>  (638) 
None

>  <Target ChEMBL ID>  (638) 
CHEMBL2815

>  <Target Name>  (638) 
Nerve growth factor receptor Trk-A

>  <Target Organism>  (638) 
Homo sapiens

>  <Target Type>  (638) 
SINGLE PROTEIN

>  <Document ChEMBL ID>  (638) 
CHEMBL1961873

>  <Source Description>  (638) 
GSK Published Kinase Inhibitor Set

>  <Document Journal>  (638) 
nan

>  <Document Year>  (638) 
nan

>  <Active>  (638) 
0.0

>  <bits>  (638) 
<rdkit.DataStructs.cDataStructs.ExplicitBitVect object at 0x00000159F540FED0>

>  <Group>  (638) 
G2

$$$$

     RDKit          2D

 21 23  0  0  0  0  0  0  0  0999 V2000
    4.0667   -3.6527    0.0000 N   0  0  0  0  0  0  0  0  0  0  0  0
    2.6401   -3.1891    0.0000 C   0  0  0  0  0  0  0  0  0  0  0  0
    1.2135   -2.7256    0.0000 C   0  0  0  0  0  0  0  0  0  0  0  0
   -0.0000   -3.6073    0.0000 C   0  0  0  0  0  0  0  0  0  0  0  0
   -0.0000   -5.1073    0.0000 N   0  0  0  0  0  0  0  0  0  0  0  0
   -1.2990   -5.8573    0.0000 C   0  0  0  0  0  0  0  0  0  0  0  0
   -2.5981   -5.1073    0.0000 O   0  0  0  0  0  0  0  0  0  0  0  0
   -1.2990   -7.3573    0.0000 C   0  0  0  0  0  0  0  0  0  0  0  0
   -2.5981   -8.1073    0.0000 N   0  0  0  0  0  0  0  0  0  0  0  0
   -3.8971   -7.3573    0.0000 C   0  0  0  0  0  0  0  0  0  0  0  0
   -5.1962   -8.1073    0.0000 C   0  0  0  0  0  0  0  0  0  0  0  0
   -5.1962   -9.6073    0.0000 O   0  0  0  0  0  0  0  0  0  0  0  0
   -3.8971  -10.3573    0.0000 C   0  0  0  0  0  0  0  0  0  0  0  0
   -2.5981   -9.6073    0.0000 C   0  0  0  0  0  0  0  0  0  0  0  0
   -1.2135   -2.7256    0.0000 S   0  0  0  0  0  0  0  0  0  0  0  0
   -0.7500   -1.2990    0.0000 C   0  0  0  0  0  0  0  0  0  0  0  0
    0.7500   -1.2990    0.0000 C   0  0  0  0  0  0  0  0  0  0  0  0
    1.5000    0.0000    0.0000 C   0  0  0  0  0  0  0  0  0  0  0  0
    0.7500    1.2990    0.0000 C   0  0  0  0  0  0  0  0  0  0  0  0
   -0.7500    1.2990    0.0000 C   0  0  0  0  0  0  0  0  0  0  0  0
   -1.5000    0.0000    0.0000 C   0  0  0  0  0  0  0  0  0  0  0  0
  1  2  3  0
  2  3  1  0
  3  4  2  0
  4  5  1  0
  5  6  1  0
  6  7  2  0
  6  8  1  0
  8  9  1  0
  9 10  1  0
 10 11  1  0
 11 12  1  0
 12 13  1  0
 13 14  1  0
  4 15  1  0
 15 16  1  0
 16 17  2  0
 17 18  1  0
 18 19  1  0
 19 20  1  0
 20 21  1  0
 17  3  1  0
 14  9  1  0
 21 16  1  0
M  END
>  <Compound_ID>  (639) 
CHEMBL1909342

>  <Molecule Name>  (639) 
nan

>  <Molecular Weight>  (639) 
395.44

>  <AlogP>  (639) 
1.77

>  <Smiles>  (639) 
N#Cc1c(NC(=O)CN2CCOCC2)sc2c1CCCC2

>  <Standard Type>  (639) 
Inhibition

>  <Standard Relation>  (639) 
'='

>  <Standard Units>  (639) 
%

>  <Standard Value>  (639) 
0.84

>  <Assay ChEMBL ID>  (639) 
CHEMBL1962185

>  <Assay Description>  (639) 
GSK_PKIS: TRKA mean inhibition at 1 uM [Nanosyn]

>  <BAO Format ID>  (639) 
BAO_0000357

>  <BAO Label>  (639) 
single protein format

>  <Assay Organism>  (639) 
None

>  <Target ChEMBL ID>  (639) 
CHEMBL2815

>  <Target Name>  (639) 
Nerve growth factor receptor Trk-A

>  <Target Organism>  (639) 
Homo sapiens

>  <Target Type>  (639) 
SINGLE PROTEIN

>  <Document ChEMBL ID>  (639) 
CHEMBL1961873

>  <Source Description>  (639) 
GSK Published Kinase Inhibitor Set

>  <Document Journal>  (639) 
nan

>  <Document Year>  (639) 
nan

>  <Active>  (639) 
0.0

>  <bits>  (639) 
<rdkit.DataStructs.cDataStructs.ExplicitBitVect object at 0x00000159F540FCA0>

>  <Group>  (639) 
G2

$$$$

     RDKit          2D

 28 31  0  0  0  0  0  0  0  0999 V2000
   -9.1645    1.7722    0.0000 C   0  0  0  0  0  0  0  0  0  0  0  0
   -8.0498    0.7685    0.0000 O   0  0  0  0  0  0  0  0  0  0  0  0
   -6.6232    1.2320    0.0000 C   0  0  0  0  0  0  0  0  0  0  0  0
   -6.3114    2.6992    0.0000 C   0  0  0  0  0  0  0  0  0  0  0  0
   -4.8848    3.1627    0.0000 C   0  0  0  0  0  0  0  0  0  0  0  0
   -3.7701    2.1590    0.0000 C   0  0  0  0  0  0  0  0  0  0  0  0
   -4.0819    0.6918    0.0000 C   0  0  0  0  0  0  0  0  0  0  0  0
   -2.9672   -0.3119    0.0000 N   0  0  0  0  0  0  0  0  0  0  0  0
   -3.1240   -1.8037    0.0000 N   0  0  0  0  0  0  0  0  0  0  0  0
   -1.7537   -2.4138    0.0000 C   0  0  0  0  0  0  0  0  0  0  0  0
   -1.4418   -3.8810    0.0000 C   0  0  0  0  0  0  0  0  0  0  0  0
   -0.7500   -1.2990    0.0000 C   0  0  0  0  0  0  0  0  0  0  0  0
    0.7500   -1.2990    0.0000 C   0  0  0  0  0  0  0  0  0  0  0  0
    1.5000   -2.5981    0.0000 N   0  0  0  0  0  0  0  0  0  0  0  0
    3.0000   -2.5981    0.0000 N   0  0  0  0  0  0  0  0  0  0  0  0
    3.7500   -3.8971    0.0000 C   0  0  0  0  0  0  0  0  0  0  0  0
    3.0000   -5.1962    0.0000 C   0  0  0  0  0  0  0  0  0  0  0  0
    5.2500   -3.8971    0.0000 C   0  0  0  0  0  0  0  0  0  0  0  0
    6.0000   -5.1962    0.0000 C   0  0  0  0  0  0  0  0  0  0  0  0
    7.5000   -5.1962    0.0000 C   0  0  0  0  0  0  0  0  0  0  0  0
    8.2500   -3.8971    0.0000 N   0  0  0  0  0  0  0  0  0  0  0  0
    7.5000   -2.5981    0.0000 C   0  0  0  0  0  0  0  0  0  0  0  0
    6.0000   -2.5981    0.0000 C   0  0  0  0  0  0  0  0  0  0  0  0
    1.5000    0.0000    0.0000 N   0  0  0  0  0  0  0  0  0  0  0  0
    0.7500    1.2990    0.0000 C   0  0  0  0  0  0  0  0  0  0  0  0
   -0.7500    1.2990    0.0000 N   0  0  0  0  0  0  0  0  0  0  0  0
   -1.5000    0.0000    0.0000 C   0  0  0  0  0  0  0  0  0  0  0  0
   -5.5085    0.2283    0.0000 C   0  0  0  0  0  0  0  0  0  0  0  0
  1  2  1  0
  2  3  1  0
  3  4  2  0
  4  5  1  0
  5  6  2  0
  6  7  1  0
  7  8  1  0
  8  9  1  0
  9 10  2  0
 10 11  1  0
 10 12  1  0
 12 13  2  0
 13 14  1  0
 14 15  1  0
 15 16  2  0
 16 17  1  0
 16 18  1  0
 18 19  2  0
 19 20  1  0
 20 21  2  0
 21 22  1  0
 22 23  2  0
 13 24  1  0
 24 25  2  0
 25 26  1  0
 26 27  2  0
  7 28  2  0
 28  3  1  0
 27  8  1  0
 27 12  1  0
 23 18  1  0
M  END
>  <Compound_ID>  (640) 
CHEMBL442363

>  <Molecule Name>  (640) 
GW809885X

>  <Molecular Weight>  (640) 
373.42

>  <AlogP>  (640) 
3.36

>  <Smiles>  (640) 
COc1cccc(-n2nc(C)c3c(N/N=C(\C)c4ccncc4)ncnc32)c1

>  <Standard Type>  (640) 
Inhibition

>  <Standard Relation>  (640) 
'='

>  <Standard Units>  (640) 
%

>  <Standard Value>  (640) 
2.57

>  <Assay ChEMBL ID>  (640) 
CHEMBL1962185

>  <Assay Description>  (640) 
GSK_PKIS: TRKA mean inhibition at 1 uM [Nanosyn]

>  <BAO Format ID>  (640) 
BAO_0000357

>  <BAO Label>  (640) 
single protein format

>  <Assay Organism>  (640) 
None

>  <Target ChEMBL ID>  (640) 
CHEMBL2815

>  <Target Name>  (640) 
Nerve growth factor receptor Trk-A

>  <Target Organism>  (640) 
Homo sapiens

>  <Target Type>  (640) 
SINGLE PROTEIN

>  <Document ChEMBL ID>  (640) 
CHEMBL1961873

>  <Source Description>  (640) 
GSK Published Kinase Inhibitor Set

>  <Document Journal>  (640) 
nan

>  <Document Year>  (640) 
nan

>  <Active>  (640) 
0.0

>  <bits>  (640) 
<rdkit.DataStructs.cDataStructs.ExplicitBitVect object at 0x00000159F540FF40>

>  <Group>  (640) 
G2

$$$$

     RDKit          2D

 32 35  0  0  0  0  0  0  0  0999 V2000
   -6.4268    0.3631    0.0000 C   0  0  0  0  0  0  0  0  0  0  0  0
   -6.1149    1.8303    0.0000 C   0  0  0  0  0  0  0  0  0  0  0  0
   -7.2296    2.8340    0.0000 C   0  0  0  0  0  0  0  0  0  0  0  0
   -6.9177    4.3013    0.0000 C   0  0  0  0  0  0  0  0  0  0  0  0
   -5.4912    4.7648    0.0000 C   0  0  0  0  0  0  0  0  0  0  0  0
   -4.3764    3.7611    0.0000 C   0  0  0  0  0  0  0  0  0  0  0  0
   -4.6883    2.2939    0.0000 C   0  0  0  0  0  0  0  0  0  0  0  0
   -3.5736    1.2902    0.0000 N   0  0  0  0  0  0  0  0  0  0  0  0
   -2.1470    1.7537    0.0000 C   0  0  0  0  0  0  0  0  0  0  0  0
   -1.8351    3.2209    0.0000 N   0  0  0  0  0  0  0  0  0  0  0  0
   -0.4086    3.6844    0.0000 C   0  0  0  0  0  0  0  0  0  0  0  0
   -0.0967    5.1517    0.0000 C   0  0  0  0  0  0  0  0  0  0  0  0
    1.3299    5.6152    0.0000 C   0  0  0  0  0  0  0  0  0  0  0  0
    1.6418    7.0824    0.0000 F   0  0  0  0  0  0  0  0  0  0  0  0
    2.4446    4.6115    0.0000 C   0  0  0  0  0  0  0  0  0  0  0  0
    3.8712    5.0750    0.0000 N   0  0  0  0  0  0  0  0  0  0  0  0
    4.9859    4.0713    0.0000 C   0  0  0  0  0  0  0  0  0  0  0  0
    4.1831    6.5422    0.0000 C   0  0  0  0  0  0  0  0  0  0  0  0
    3.0684    7.5459    0.0000 O   0  0  0  0  0  0  0  0  0  0  0  0
    5.6097    7.0058    0.0000 C   0  0  0  0  0  0  0  0  0  0  0  0
    5.9215    8.4730    0.0000 C   0  0  0  0  0  0  0  0  0  0  0  0
    7.3481    8.9365    0.0000 C   0  0  0  0  0  0  0  0  0  0  0  0
    7.6600   10.4037    0.0000 N   0  0  0  0  0  0  0  0  0  0  0  0
    9.0866   10.8673    0.0000 C   0  0  0  0  0  0  0  0  0  0  0  0
    6.5453   11.4074    0.0000 C   0  0  0  0  0  0  0  0  0  0  0  0
    2.1328    3.1443    0.0000 C   0  0  0  0  0  0  0  0  0  0  0  0
    0.7062    2.6807    0.0000 C   0  0  0  0  0  0  0  0  0  0  0  0
    0.3943    1.2135    0.0000 N   0  0  0  0  0  0  0  0  0  0  0  0
    1.2760    0.0000    0.0000 C   0  0  0  0  0  0  0  0  0  0  0  0
    0.3943   -1.2135    0.0000 N   0  0  0  0  0  0  0  0  0  0  0  0
   -1.0323   -0.7500    0.0000 C   0  0  0  0  0  0  0  0  0  0  0  0
   -1.0323    0.7500    0.0000 C   0  0  0  0  0  0  0  0  0  0  0  0
  1  2  1  0
  2  3  2  0
  3  4  1  0
  4  5  2  0
  5  6  1  0
  6  7  2  0
  7  8  1  0
  8  9  1  0
  9 10  2  0
 10 11  1  0
 11 12  2  0
 12 13  1  0
 13 14  1  0
 13 15  2  0
 15 16  1  0
 16 17  1  0
 16 18  1  0
 18 19  2  0
 18 20  1  0
 20 21  2  0
 21 22  1  0
 22 23  1  0
 23 24  1  0
 23 25  1  0
 15 26  1  0
 26 27  2  0
 27 28  1  0
 28 29  1  0
 29 30  2  0
 30 31  1  0
 31 32  2  0
  7  2  1  0
 32  9  1  0
 27 11  1  0
 32 28  1  0
M  END
>  <Compound_ID>  (641) 
CHEMBL1916891

>  <Molecule Name>  (641) 
nan

>  <Molecular Weight>  (641) 
432.5

>  <AlogP>  (641) 
4.15

>  <Smiles>  (641) 
Cc1ccccc1Nc1nc2cc(F)c(N(C)C(=O)/C=C/CN(C)C)cc2n2cncc12

>  <Standard Type>  (641) 
Inhibition

>  <Standard Relation>  (641) 
'='

>  <Standard Units>  (641) 
%

>  <Standard Value>  (641) 
8.0

>  <Assay ChEMBL ID>  (641) 
CHEMBL1919454

>  <Assay Description>  (641) 
Inhibition of NTRK1 relative to control

>  <BAO Format ID>  (641) 
BAO_0000357

>  <BAO Label>  (641) 
single protein format

>  <Assay Organism>  (641) 
None

>  <Target ChEMBL ID>  (641) 
CHEMBL2815

>  <Target Name>  (641) 
Nerve growth factor receptor Trk-A

>  <Target Organism>  (641) 
Homo sapiens

>  <Target Type>  (641) 
SINGLE PROTEIN

>  <Document ChEMBL ID>  (641) 
CHEMBL1914368

>  <Source Description>  (641) 
Scientific Literature

>  <Document Journal>  (641) 
Bioorg Med Chem Lett

>  <Document Year>  (641) 
2011.0

>  <Active>  (641) 
0.0

>  <bits>  (641) 
<rdkit.DataStructs.cDataStructs.ExplicitBitVect object at 0x00000159F540EDC0>

>  <Group>  (641) 
G2

$$$$

     RDKit          2D

 24 27  0  0  0  0  0  0  0  0999 V2000
   -5.2046    0.1696    0.0000 N   0  0  0  0  0  0  0  0  0  0  0  0
   -5.6682   -1.2570    0.0000 C   0  0  0  0  0  0  0  0  0  0  0  0
   -6.1317   -2.6836    0.0000 C   0  0  0  0  0  0  0  0  0  0  0  0
   -5.2500   -3.8971    0.0000 C   0  0  0  0  0  0  0  0  0  0  0  0
   -3.7500   -3.8971    0.0000 N   0  0  0  0  0  0  0  0  0  0  0  0
   -3.0000   -2.5981    0.0000 C   0  0  0  0  0  0  0  0  0  0  0  0
   -3.7500   -1.2990    0.0000 O   0  0  0  0  0  0  0  0  0  0  0  0
   -1.5000   -2.5981    0.0000 C   0  0  0  0  0  0  0  0  0  0  0  0
   -0.7500   -3.8971    0.0000 C   0  0  0  0  0  0  0  0  0  0  0  0
    0.7500   -3.8971    0.0000 C   0  0  0  0  0  0  0  0  0  0  0  0
    1.5000   -2.5981    0.0000 C   0  0  0  0  0  0  0  0  0  0  0  0
    0.7500   -1.2990    0.0000 C   0  0  0  0  0  0  0  0  0  0  0  0
    1.5000    0.0000    0.0000 C   0  0  0  0  0  0  0  0  0  0  0  0
    0.7500    1.2990    0.0000 C   0  0  0  0  0  0  0  0  0  0  0  0
   -0.7500    1.2990    0.0000 C   0  0  0  0  0  0  0  0  0  0  0  0
   -1.5000    0.0000    0.0000 C   0  0  0  0  0  0  0  0  0  0  0  0
   -0.7500   -1.2990    0.0000 C   0  0  0  0  0  0  0  0  0  0  0  0
   -6.1317   -5.1106    0.0000 S   0  0  0  0  0  0  0  0  0  0  0  0
   -7.5583   -4.6471    0.0000 C   0  0  0  0  0  0  0  0  0  0  0  0
   -7.5583   -3.1471    0.0000 C   0  0  0  0  0  0  0  0  0  0  0  0
   -8.8573   -2.3971    0.0000 C   0  0  0  0  0  0  0  0  0  0  0  0
  -10.1563   -3.1471    0.0000 C   0  0  0  0  0  0  0  0  0  0  0  0
  -10.1563   -4.6471    0.0000 C   0  0  0  0  0  0  0  0  0  0  0  0
   -8.8573   -5.3971    0.0000 C   0  0  0  0  0  0  0  0  0  0  0  0
  1  2  3  0
  2  3  1  0
  3  4  2  0
  4  5  1  0
  5  6  1  0
  6  7  2  0
  6  8  1  0
  8  9  2  0
  9 10  1  0
 10 11  2  0
 11 12  1  0
 12 13  2  0
 13 14  1  0
 14 15  2  0
 15 16  1  0
 16 17  2  0
  4 18  1  0
 18 19  1  0
 19 20  2  0
 20 21  1  0
 21 22  1  0
 22 23  1  0
 23 24  1  0
 20  3  1  0
 17  8  1  0
 24 19  1  0
 17 12  1  0
M  END
>  <Compound_ID>  (642) 
CHEMBL233001

>  <Molecule Name>  (642) 
GW620972X

>  <Molecular Weight>  (642) 
332.43

>  <AlogP>  (642) 
4.9

>  <Smiles>  (642) 
N#Cc1c(NC(=O)c2cccc3ccccc23)sc2c1CCCC2

>  <Standard Type>  (642) 
Inhibition

>  <Standard Relation>  (642) 
'='

>  <Standard Units>  (642) 
%

>  <Standard Value>  (642) 
1.26

>  <Assay ChEMBL ID>  (642) 
CHEMBL1962185

>  <Assay Description>  (642) 
GSK_PKIS: TRKA mean inhibition at 1 uM [Nanosyn]

>  <BAO Format ID>  (642) 
BAO_0000357

>  <BAO Label>  (642) 
single protein format

>  <Assay Organism>  (642) 
None

>  <Target ChEMBL ID>  (642) 
CHEMBL2815

>  <Target Name>  (642) 
Nerve growth factor receptor Trk-A

>  <Target Organism>  (642) 
Homo sapiens

>  <Target Type>  (642) 
SINGLE PROTEIN

>  <Document ChEMBL ID>  (642) 
CHEMBL1961873

>  <Source Description>  (642) 
GSK Published Kinase Inhibitor Set

>  <Document Journal>  (642) 
nan

>  <Document Year>  (642) 
nan

>  <Active>  (642) 
0.0

>  <bits>  (642) 
<rdkit.DataStructs.cDataStructs.ExplicitBitVect object at 0x00000159F540FE60>

>  <Group>  (642) 
G2

$$$$

     RDKit          2D

 28 32  0  0  0  0  0  0  0  0999 V2000
    4.5000    0.0000    0.0000 N   0  0  0  0  0  0  0  0  0  0  0  0
    3.0000    0.0000    0.0000 C   0  0  0  0  0  0  0  0  0  0  0  0
    1.5000    0.0000    0.0000 C   0  0  0  0  0  0  0  0  0  0  0  0
    0.7500   -1.2990    0.0000 C   0  0  0  0  0  0  0  0  0  0  0  0
   -0.7500   -1.2990    0.0000 C   0  0  0  0  0  0  0  0  0  0  0  0
   -1.5000    0.0000    0.0000 C   0  0  0  0  0  0  0  0  0  0  0  0
   -2.9672    0.3119    0.0000 C   0  0  0  0  0  0  0  0  0  0  0  0
   -4.0819   -0.6918    0.0000 C   0  0  0  0  0  0  0  0  0  0  0  0
   -5.5085   -0.2283    0.0000 C   0  0  0  0  0  0  0  0  0  0  0  0
   -6.6232   -1.2320    0.0000 C   0  0  0  0  0  0  0  0  0  0  0  0
   -6.3114   -2.6992    0.0000 N   0  0  0  0  0  0  0  0  0  0  0  0
   -4.8848   -3.1627    0.0000 C   0  0  0  0  0  0  0  0  0  0  0  0
   -4.5729   -4.6300    0.0000 N   0  0  0  0  0  0  0  0  0  0  0  0
   -5.6876   -5.6337    0.0000 C   0  0  0  0  0  0  0  0  0  0  0  0
   -6.1512   -7.0602    0.0000 C   0  0  0  0  0  0  0  0  0  0  0  0
   -7.1549   -5.9455    0.0000 C   0  0  0  0  0  0  0  0  0  0  0  0
   -3.7701   -2.1590    0.0000 N   0  0  0  0  0  0  0  0  0  0  0  0
   -3.1240    1.8037    0.0000 C   0  0  0  0  0  0  0  0  0  0  0  0
   -4.4231    2.5537    0.0000 C   0  0  0  0  0  0  0  0  0  0  0  0
   -4.4231    4.0537    0.0000 C   0  0  0  0  0  0  0  0  0  0  0  0
   -5.7221    4.8037    0.0000 C   0  0  0  0  0  0  0  0  0  0  0  0
   -7.0211    4.0537    0.0000 C   0  0  0  0  0  0  0  0  0  0  0  0
   -8.3202    4.8037    0.0000 F   0  0  0  0  0  0  0  0  0  0  0  0
   -7.0211    2.5537    0.0000 C   0  0  0  0  0  0  0  0  0  0  0  0
   -5.7221    1.8037    0.0000 C   0  0  0  0  0  0  0  0  0  0  0  0
   -1.7537    2.4138    0.0000 N   0  0  0  0  0  0  0  0  0  0  0  0
   -0.7500    1.2990    0.0000 N   0  0  0  0  0  0  0  0  0  0  0  0
    0.7500    1.2990    0.0000 C   0  0  0  0  0  0  0  0  0  0  0  0
  1  2  3  0
  2  3  1  0
  3  4  1  0
  4  5  2  0
  5  6  1  0
  6  7  2  0
  7  8  1  0
  8  9  2  0
  9 10  1  0
 10 11  2  0
 11 12  1  0
 12 13  1  0
 13 14  1  0
 14 15  1  0
 15 16  1  0
 12 17  2  0
  7 18  1  0
 18 19  1  0
 19 20  2  0
 20 21  1  0
 21 22  2  0
 22 23  1  0
 22 24  1  0
 24 25  2  0
 18 26  2  0
 26 27  1  0
 27 28  1  0
 28  3  2  0
 27  6  1  0
 17  8  1  0
 25 19  1  0
 16 14  1  0
M  END
>  <Compound_ID>  (643) 
CHEMBL1885746

>  <Molecule Name>  (643) 
GW561436X

>  <Molecular Weight>  (643) 
370.39

>  <AlogP>  (643) 
4.04

>  <Smiles>  (643) 
N#Cc1ccc2c(-c3ccnc(NC4CC4)n3)c(-c3ccc(F)cc3)nn2c1

>  <Standard Type>  (643) 
Inhibition

>  <Standard Relation>  (643) 
'='

>  <Standard Units>  (643) 
%

>  <Standard Value>  (643) 
-2.02

>  <Assay ChEMBL ID>  (643) 
CHEMBL1962185

>  <Assay Description>  (643) 
GSK_PKIS: TRKA mean inhibition at 1 uM [Nanosyn]

>  <BAO Format ID>  (643) 
BAO_0000357

>  <BAO Label>  (643) 
single protein format

>  <Assay Organism>  (643) 
None

>  <Target ChEMBL ID>  (643) 
CHEMBL2815

>  <Target Name>  (643) 
Nerve growth factor receptor Trk-A

>  <Target Organism>  (643) 
Homo sapiens

>  <Target Type>  (643) 
SINGLE PROTEIN

>  <Document ChEMBL ID>  (643) 
CHEMBL1961873

>  <Source Description>  (643) 
GSK Published Kinase Inhibitor Set

>  <Document Journal>  (643) 
nan

>  <Document Year>  (643) 
nan

>  <Active>  (643) 
0.0

>  <bits>  (643) 
<rdkit.DataStructs.cDataStructs.ExplicitBitVect object at 0x00000159F540F3E0>

>  <Group>  (643) 
G2

$$$$

     RDKit          2D

 31 34  0  0  0  0  0  0  0  0999 V2000
    3.0000    0.0000    0.0000 N   0  0  0  0  0  0  0  0  0  0  0  0
    1.5000    0.0000    0.0000 C   0  0  0  0  0  0  0  0  0  0  0  0
    0.7500   -1.2990    0.0000 N   0  0  0  0  0  0  0  0  0  0  0  0
   -0.7500   -1.2990    0.0000 C   0  0  0  0  0  0  0  0  0  0  0  0
   -1.5000   -2.5981    0.0000 N   0  0  0  0  0  0  0  0  0  0  0  0
   -3.0000   -2.5981    0.0000 C   0  0  0  0  0  0  0  0  0  0  0  0
   -3.7500   -3.8971    0.0000 C   0  0  0  0  0  0  0  0  0  0  0  0
   -3.0000   -5.1962    0.0000 O   0  0  0  0  0  0  0  0  0  0  0  0
   -1.5000   -5.1962    0.0000 C   0  0  0  0  0  0  0  0  0  0  0  0
   -0.7500   -3.8971    0.0000 C   0  0  0  0  0  0  0  0  0  0  0  0
   -1.5000    0.0000    0.0000 C   0  0  0  0  0  0  0  0  0  0  0  0
   -0.7500    1.2990    0.0000 C   0  0  0  0  0  0  0  0  0  0  0  0
   -1.5000    2.5981    0.0000 N   0  0  0  0  0  0  0  0  0  0  0  0
   -0.7500    3.8971    0.0000 C   0  0  0  0  0  0  0  0  0  0  0  0
   -1.5000    5.1962    0.0000 C   0  0  0  0  0  0  0  0  0  0  0  0
   -3.0000    5.1962    0.0000 C   0  0  0  0  0  0  0  0  0  0  0  0
   -3.7500    6.4952    0.0000 C   0  0  0  0  0  0  0  0  0  0  0  0
   -5.2500    6.4952    0.0000 O   0  0  0  0  0  0  0  0  0  0  0  0
   -3.0000    7.7942    0.0000 N   0  0  0  0  0  0  0  0  0  0  0  0
   -3.7500    9.0933    0.0000 C   0  0  0  0  0  0  0  0  0  0  0  0
   -3.0000   10.3923    0.0000 C   0  0  0  0  0  0  0  0  0  0  0  0
   -3.7500   11.6913    0.0000 C   0  0  0  0  0  0  0  0  0  0  0  0
   -3.0000   12.9904    0.0000 C   0  0  0  0  0  0  0  0  0  0  0  0
   -3.7500   14.2894    0.0000 C   0  0  0  0  0  0  0  0  0  0  0  0
   -5.2500   14.2894    0.0000 C   0  0  0  0  0  0  0  0  0  0  0  0
   -6.0000   15.5885    0.0000 O   0  0  0  0  0  0  0  0  0  0  0  0
   -6.0000   12.9904    0.0000 C   0  0  0  0  0  0  0  0  0  0  0  0
   -5.2500   11.6913    0.0000 C   0  0  0  0  0  0  0  0  0  0  0  0
   -3.7500    3.8971    0.0000 C   0  0  0  0  0  0  0  0  0  0  0  0
   -3.0000    2.5981    0.0000 C   0  0  0  0  0  0  0  0  0  0  0  0
    0.7500    1.2990    0.0000 N   0  0  0  0  0  0  0  0  0  0  0  0
  1  2  1  0
  2  3  2  0
  3  4  1  0
  4  5  1  0
  5  6  1  0
  6  7  1  0
  7  8  1  0
  8  9  1  0
  9 10  1  0
  4 11  2  0
 11 12  1  0
 12 13  1  0
 13 14  1  0
 14 15  1  0
 15 16  1  0
 16 17  1  0
 17 18  2  0
 17 19  1  0
 19 20  1  0
 20 21  1  0
 21 22  1  0
 22 23  2  0
 23 24  1  0
 24 25  2  0
 25 26  1  0
 25 27  1  0
 27 28  2  0
 16 29  1  0
 29 30  1  0
 12 31  2  0
 31  2  1  0
 10  5  1  0
 30 13  1  0
 28 22  1  0
M  END
>  <Compound_ID>  (644) 
CHEMBL501728

>  <Molecule Name>  (644) 
nan

>  <Molecular Weight>  (644) 
426.52

>  <AlogP>  (644) 
1.18

>  <Smiles>  (644) 
Nc1nc(N2CCOCC2)cc(N2CCC(C(=O)NCCc3ccc(O)cc3)CC2)n1

>  <Standard Type>  (644) 
Inhibition

>  <Standard Relation>  (644) 
'='

>  <Standard Units>  (644) 
%

>  <Standard Value>  (644) 
6.0

>  <Assay ChEMBL ID>  (644) 
CHEMBL965679

>  <Assay Description>  (644) 
Inhibition of TrkA at 10 uM by HTRF assay relative to control

>  <BAO Format ID>  (644) 
BAO_0000357

>  <BAO Label>  (644) 
single protein format

>  <Assay Organism>  (644) 
None

>  <Target ChEMBL ID>  (644) 
CHEMBL2815

>  <Target Name>  (644) 
Nerve growth factor receptor Trk-A

>  <Target Organism>  (644) 
Homo sapiens

>  <Target Type>  (644) 
SINGLE PROTEIN

>  <Document ChEMBL ID>  (644) 
CHEMBL1150387

>  <Source Description>  (644) 
Scientific Literature

>  <Document Journal>  (644) 
J Med Chem

>  <Document Year>  (644) 
2008.0

>  <Active>  (644) 
0.0

>  <bits>  (644) 
<rdkit.DataStructs.cDataStructs.ExplicitBitVect object at 0x00000159F540E730>

>  <Group>  (644) 
G2

$$$$

     RDKit          2D

 29 32  0  0  0  0  0  0  0  0999 V2000
    3.7500   -1.2990    0.0000 C   0  0  0  0  0  0  0  0  0  0  0  0
    3.0000    0.0000    0.0000 O   0  0  0  0  0  0  0  0  0  0  0  0
    1.5000    0.0000    0.0000 C   0  0  0  0  0  0  0  0  0  0  0  0
    0.7500   -1.2990    0.0000 C   0  0  0  0  0  0  0  0  0  0  0  0
   -0.7500   -1.2990    0.0000 C   0  0  0  0  0  0  0  0  0  0  0  0
   -1.5000    0.0000    0.0000 C   0  0  0  0  0  0  0  0  0  0  0  0
   -2.9672    0.3119    0.0000 N   0  0  0  0  0  0  0  0  0  0  0  0
   -3.1240    1.8037    0.0000 C   0  0  0  0  0  0  0  0  0  0  0  0
   -1.7537    2.4138    0.0000 N   0  0  0  0  0  0  0  0  0  0  0  0
   -1.4418    3.8810    0.0000 C   0  0  0  0  0  0  0  0  0  0  0  0
   -2.4455    4.9957    0.0000 C   0  0  0  0  0  0  0  0  0  0  0  0
   -1.6955    6.2947    0.0000 C   0  0  0  0  0  0  0  0  0  0  0  0
   -2.3056    7.6651    0.0000 O   0  0  0  0  0  0  0  0  0  0  0  0
   -3.7974    7.8218    0.0000 C   0  0  0  0  0  0  0  0  0  0  0  0
   -4.4075    9.1922    0.0000 C   0  0  0  0  0  0  0  0  0  0  0  0
   -4.6791    6.6083    0.0000 C   0  0  0  0  0  0  0  0  0  0  0  0
   -4.0690    5.2380    0.0000 C   0  0  0  0  0  0  0  0  0  0  0  0
   -4.9507    4.0245    0.0000 C   0  0  0  0  0  0  0  0  0  0  0  0
   -6.4424    4.1813    0.0000 C   0  0  0  0  0  0  0  0  0  0  0  0
   -7.0526    5.5516    0.0000 C   0  0  0  0  0  0  0  0  0  0  0  0
   -6.1709    6.7651    0.0000 C   0  0  0  0  0  0  0  0  0  0  0  0
   -6.7810    8.1354    0.0000 Cl  0  0  0  0  0  0  0  0  0  0  0  0
   -0.2283    5.9829    0.0000 C   0  0  0  0  0  0  0  0  0  0  0  0
    0.8864    6.9866    0.0000 C   0  0  0  0  0  0  0  0  0  0  0  0
    2.3130    6.5230    0.0000 N   0  0  0  0  0  0  0  0  0  0  0  0
    0.5745    8.4538    0.0000 O   0  0  0  0  0  0  0  0  0  0  0  0
   -0.0715    4.4911    0.0000 S   0  0  0  0  0  0  0  0  0  0  0  0
   -0.7500    1.2990    0.0000 C   0  0  0  0  0  0  0  0  0  0  0  0
    0.7500    1.2990    0.0000 C   0  0  0  0  0  0  0  0  0  0  0  0
  1  2  1  0
  2  3  1  0
  3  4  2  0
  4  5  1  0
  5  6  2  0
  6  7  1  0
  7  8  2  0
  8  9  1  0
  9 10  1  0
 10 11  2  0
 11 12  1  0
 12 13  1  0
 13 14  1  0
 14 15  1  1
 14 16  1  0
 16 17  2  0
 17 18  1  0
 18 19  2  0
 19 20  1  0
 20 21  2  0
 21 22  1  0
 12 23  2  0
 23 24  1  0
 24 25  1  0
 24 26  2  0
 23 27  1  0
  9 28  1  0
 28 29  2  0
 29  3  1  0
 28  6  1  0
 27 10  1  0
 21 16  1  0
M  END
>  <Compound_ID>  (645) 
CHEMBL493326

>  <Molecule Name>  (645) 
GSK-317314A

>  <Molecular Weight>  (645) 
427.91

>  <AlogP>  (645) 
4.99

>  <Smiles>  (645) 
COc1ccc2ncn(-c3cc(O[C@H](C)c4ccccc4Cl)c(C(N)=O)s3)c2c1

>  <Standard Type>  (645) 
Inhibition

>  <Standard Relation>  (645) 
'='

>  <Standard Units>  (645) 
%

>  <Standard Value>  (645) 
4.03

>  <Assay ChEMBL ID>  (645) 
CHEMBL1962185

>  <Assay Description>  (645) 
GSK_PKIS: TRKA mean inhibition at 1 uM [Nanosyn]

>  <BAO Format ID>  (645) 
BAO_0000357

>  <BAO Label>  (645) 
single protein format

>  <Assay Organism>  (645) 
None

>  <Target ChEMBL ID>  (645) 
CHEMBL2815

>  <Target Name>  (645) 
Nerve growth factor receptor Trk-A

>  <Target Organism>  (645) 
Homo sapiens

>  <Target Type>  (645) 
SINGLE PROTEIN

>  <Document ChEMBL ID>  (645) 
CHEMBL1961873

>  <Source Description>  (645) 
GSK Published Kinase Inhibitor Set

>  <Document Journal>  (645) 
nan

>  <Document Year>  (645) 
nan

>  <Active>  (645) 
0.0

>  <bits>  (645) 
<rdkit.DataStructs.cDataStructs.ExplicitBitVect object at 0x00000159F540F220>

>  <Group>  (645) 
G2

$$$$

     RDKit          2D

 20 22  0  0  0  0  0  0  0  0999 V2000
    1.8478   -6.4639    0.0000 O   0  0  0  0  0  0  0  0  0  0  0  0
    2.0046   -4.9721    0.0000 C   0  0  0  0  0  0  0  0  0  0  0  0
    3.3037   -4.2221    0.0000 N   0  0  0  0  0  0  0  0  0  0  0  0
    2.9918   -2.7549    0.0000 C   0  0  0  0  0  0  0  0  0  0  0  0
    3.9955   -1.6402    0.0000 O   0  0  0  0  0  0  0  0  0  0  0  0
    1.5000   -2.5981    0.0000 C   0  0  0  0  0  0  0  0  0  0  0  0
    0.7500   -1.2990    0.0000 C   0  0  0  0  0  0  0  0  0  0  0  0
    1.5000    0.0000    0.0000 C   0  0  0  0  0  0  0  0  0  0  0  0
    0.7500    1.2990    0.0000 C   0  0  0  0  0  0  0  0  0  0  0  0
   -0.7500    1.2990    0.0000 C   0  0  0  0  0  0  0  0  0  0  0  0
   -1.5000    0.0000    0.0000 C   0  0  0  0  0  0  0  0  0  0  0  0
   -0.7500   -1.2990    0.0000 C   0  0  0  0  0  0  0  0  0  0  0  0
    0.8899   -3.9684    0.0000 C   0  0  0  0  0  0  0  0  0  0  0  0
   -0.5773   -4.2803    0.0000 N   0  0  0  0  0  0  0  0  0  0  0  0
   -1.0409   -5.7068    0.0000 C   0  0  0  0  0  0  0  0  0  0  0  0
   -2.5081   -6.0187    0.0000 C   0  0  0  0  0  0  0  0  0  0  0  0
   -2.9716   -7.4453    0.0000 C   0  0  0  0  0  0  0  0  0  0  0  0
   -1.9679   -8.5600    0.0000 C   0  0  0  0  0  0  0  0  0  0  0  0
   -0.5007   -8.2481    0.0000 C   0  0  0  0  0  0  0  0  0  0  0  0
   -0.0372   -6.8216    0.0000 C   0  0  0  0  0  0  0  0  0  0  0  0
  1  2  2  0
  2  3  1  0
  3  4  1  0
  4  5  2  0
  4  6  1  0
  6  7  1  0
  7  8  2  0
  8  9  1  0
  9 10  2  0
 10 11  1  0
 11 12  2  0
  6 13  2  0
 13 14  1  0
 14 15  1  0
 15 16  2  0
 16 17  1  0
 17 18  2  0
 18 19  1  0
 19 20  2  0
 13  2  1  0
 20 15  1  0
 12  7  1  0
M  END
>  <Compound_ID>  (646) 
CHEMBL346551

>  <Molecule Name>  (646) 
nan

>  <Molecular Weight>  (646) 
264.28

>  <AlogP>  (646) 
2.17

>  <Smiles>  (646) 
O=C1NC(=O)C(c2ccccc2)=C1Nc1ccccc1

>  <Standard Type>  (646) 
Inhibition

>  <Standard Relation>  (646) 
'='

>  <Standard Units>  (646) 
%

>  <Standard Value>  (646) 
4.65

>  <Assay ChEMBL ID>  (646) 
CHEMBL1962184

>  <Assay Description>  (646) 
GSK_PKIS: TRKA mean inhibition at 0.1 uM [Nanosyn]

>  <BAO Format ID>  (646) 
BAO_0000357

>  <BAO Label>  (646) 
single protein format

>  <Assay Organism>  (646) 
None

>  <Target ChEMBL ID>  (646) 
CHEMBL2815

>  <Target Name>  (646) 
Nerve growth factor receptor Trk-A

>  <Target Organism>  (646) 
Homo sapiens

>  <Target Type>  (646) 
SINGLE PROTEIN

>  <Document ChEMBL ID>  (646) 
CHEMBL1961873

>  <Source Description>  (646) 
GSK Published Kinase Inhibitor Set

>  <Document Journal>  (646) 
nan

>  <Document Year>  (646) 
nan

>  <Active>  (646) 
0.0

>  <bits>  (646) 
<rdkit.DataStructs.cDataStructs.ExplicitBitVect object at 0x00000159F540E3B0>

>  <Group>  (646) 
G2

$$$$

     RDKit          2D

 30 31  0  0  0  0  0  0  0  0999 V2000
    3.7500    1.2990    0.0000 O   0  0  0  0  0  0  0  0  0  0  0  0
    3.0000    0.0000    0.0000 C   0  0  0  0  0  0  0  0  0  0  0  0
    3.7500   -1.2990    0.0000 N   0  0  0  0  0  0  0  0  0  0  0  0
    5.2500   -1.2990    0.0000 O   0  0  0  0  0  0  0  0  0  0  0  0
    6.0000   -2.5981    0.0000 C   0  0  0  0  0  0  0  0  0  0  0  0
    7.5000   -2.5981    0.0000 C   0  0  0  0  0  0  0  0  0  0  0  0
    8.2500   -3.8971    0.0000 O   0  0  0  0  0  0  0  0  0  0  0  0
    1.5000    0.0000    0.0000 C   0  0  0  0  0  0  0  0  0  0  0  0
    0.7500   -1.2990    0.0000 C   0  0  0  0  0  0  0  0  0  0  0  0
   -0.7500   -1.2990    0.0000 C   0  0  0  0  0  0  0  0  0  0  0  0
   -1.5000   -2.5981    0.0000 C   0  0  0  0  0  0  0  0  0  0  0  0
   -3.0000   -2.5981    0.0000 N   0  0  0  0  0  0  0  0  0  0  0  0
   -3.7500   -3.8971    0.0000 O   0  0  0  0  0  0  0  0  0  0  0  0
   -5.2500   -3.8971    0.0000 C   0  0  0  0  0  0  0  0  0  0  0  0
   -6.0000   -5.1962    0.0000 C   0  0  0  0  0  0  0  0  0  0  0  0
   -7.5000   -5.1962    0.0000 O   0  0  0  0  0  0  0  0  0  0  0  0
   -1.5000    0.0000    0.0000 C   0  0  0  0  0  0  0  0  0  0  0  0
   -3.0000    0.0000    0.0000 F   0  0  0  0  0  0  0  0  0  0  0  0
   -0.7500    1.2990    0.0000 C   0  0  0  0  0  0  0  0  0  0  0  0
   -1.5000    2.5981    0.0000 F   0  0  0  0  0  0  0  0  0  0  0  0
    0.7500    1.2990    0.0000 C   0  0  0  0  0  0  0  0  0  0  0  0
    1.5000    2.5981    0.0000 N   0  0  0  0  0  0  0  0  0  0  0  0
    0.7500    3.8971    0.0000 C   0  0  0  0  0  0  0  0  0  0  0  0
   -0.7500    3.8971    0.0000 C   0  0  0  0  0  0  0  0  0  0  0  0
   -1.5000    5.1962    0.0000 C   0  0  0  0  0  0  0  0  0  0  0  0
   -0.7500    6.4952    0.0000 C   0  0  0  0  0  0  0  0  0  0  0  0
   -1.5000    7.7942    0.0000 I   0  0  0  0  0  0  0  0  0  0  0  0
    0.7500    6.4952    0.0000 C   0  0  0  0  0  0  0  0  0  0  0  0
    1.5000    5.1962    0.0000 C   0  0  0  0  0  0  0  0  0  0  0  0
    3.0000    5.1962    0.0000 F   0  0  0  0  0  0  0  0  0  0  0  0
  1  2  2  0
  2  3  1  0
  3  4  1  0
  4  5  1  0
  5  6  1  0
  6  7  1  0
  2  8  1  0
  8  9  2  0
  9 10  1  0
 10 11  1  0
 11 12  2  0
 12 13  1  0
 13 14  1  0
 14 15  1  0
 15 16  1  0
 10 17  2  0
 17 18  1  0
 17 19  1  0
 19 20  1  0
 19 21  2  0
 21 22  1  0
 22 23  1  0
 23 24  2  0
 24 25  1  0
 25 26  2  0
 26 27  1  0
 26 28  1  0
 28 29  2  0
 29 30  1  0
 21  8  1  0
 29 23  1  0
M  END
>  <Compound_ID>  (647) 
CHEMBL464239

>  <Molecule Name>  (647) 
nan

>  <Molecular Weight>  (647) 
539.25

>  <AlogP>  (647) 
2.45

>  <Smiles>  (647) 
O=C(NOCCO)c1cc(/C=N/OCCO)c(F)c(F)c1Nc1ccc(I)cc1F

>  <Standard Type>  (647) 
Inhibition

>  <Standard Relation>  (647) 
'='

>  <Standard Units>  (647) 
%

>  <Standard Value>  (647) 
0.0

>  <Assay ChEMBL ID>  (647) 
CHEMBL1011755

>  <Assay Description>  (647) 
Binding affinity to TrkA at 10 uM

>  <BAO Format ID>  (647) 
BAO_0000357

>  <BAO Label>  (647) 
single protein format

>  <Assay Organism>  (647) 
None

>  <Target ChEMBL ID>  (647) 
CHEMBL2815

>  <Target Name>  (647) 
Nerve growth factor receptor Trk-A

>  <Target Organism>  (647) 
Homo sapiens

>  <Target Type>  (647) 
SINGLE PROTEIN

>  <Document ChEMBL ID>  (647) 
CHEMBL1139272

>  <Source Description>  (647) 
Scientific Literature

>  <Document Journal>  (647) 
Bioorg Med Chem Lett

>  <Document Year>  (647) 
2009.0

>  <Active>  (647) 
0.0

>  <bits>  (647) 
<rdkit.DataStructs.cDataStructs.ExplicitBitVect object at 0x00000159F540F0D0>

>  <Group>  (647) 
G2

$$$$

     RDKit          2D

 25 28  0  0  0  0  0  0  0  0999 V2000
   -0.0000   -5.1073    0.0000 O   0  0  0  0  0  0  0  0  0  0  0  0
   -0.0000   -3.6073    0.0000 C   0  0  0  0  0  0  0  0  0  0  0  0
    1.2135   -2.7256    0.0000 N   0  0  0  0  0  0  0  0  0  0  0  0
    0.7500   -1.2990    0.0000 C   0  0  0  0  0  0  0  0  0  0  0  0
    1.5000    0.0000    0.0000 C   0  0  0  0  0  0  0  0  0  0  0  0
    0.7500    1.2990    0.0000 C   0  0  0  0  0  0  0  0  0  0  0  0
   -0.7500    1.2990    0.0000 C   0  0  0  0  0  0  0  0  0  0  0  0
   -1.5000    2.5981    0.0000 N   0  0  0  0  0  4  0  0  0  0  0  0
   -3.0000    2.5981    0.0000 O   0  0  0  0  0  0  0  0  0  0  0  0
   -0.7500    3.8971    0.0000 O   0  0  0  0  0  1  0  0  0  0  0  0
   -1.5000    0.0000    0.0000 C   0  0  0  0  0  0  0  0  0  0  0  0
   -0.7500   -1.2990    0.0000 C   0  0  0  0  0  0  0  0  0  0  0  0
   -1.2135   -2.7256    0.0000 C   0  0  0  0  0  0  0  0  0  0  0  0
   -2.6401   -3.1891    0.0000 C   0  0  0  0  0  0  0  0  0  0  0  0
   -3.1036   -4.6157    0.0000 N   0  0  0  0  0  0  0  0  0  0  0  0
   -4.6036   -4.6157    0.0000 C   0  0  0  0  0  0  0  0  0  0  0  0
   -5.6073   -5.7305    0.0000 C   0  0  0  0  0  0  0  0  0  0  0  0
   -7.0746   -5.4186    0.0000 C   0  0  0  0  0  0  0  0  0  0  0  0
   -7.5381   -3.9920    0.0000 C   0  0  0  0  0  0  0  0  0  0  0  0
   -9.0053   -3.6801    0.0000 O   0  0  0  0  0  0  0  0  0  0  0  0
   -6.5344   -2.8773    0.0000 C   0  0  0  0  0  0  0  0  0  0  0  0
   -5.0672   -3.1891    0.0000 C   0  0  0  0  0  0  0  0  0  0  0  0
   -3.8536   -2.3075    0.0000 C   0  0  0  0  0  0  0  0  0  0  0  0
   -3.8536   -0.8075    0.0000 N   0  0  0  0  0  0  0  0  0  0  0  0
   -2.5546   -0.0575    0.0000 O   0  0  0  0  0  0  0  0  0  0  0  0
  1  2  2  0
  2  3  1  0
  3  4  1  0
  4  5  2  0
  5  6  1  0
  6  7  2  0
  7  8  1  0
  8  9  2  0
  8 10  1  0
  7 11  1  0
 11 12  2  0
 12 13  1  0
 13 14  2  0
 14 15  1  0
 15 16  1  0
 16 17  2  0
 17 18  1  0
 18 19  2  0
 19 20  1  0
 19 21  1  0
 21 22  2  0
 22 23  1  0
 23 24  2  0
 24 25  1  0
 13  2  1  0
 23 14  1  0
 12  4  1  0
 22 16  1  0
M  CHG  2   8   1  10  -1
M  END
>  <Compound_ID>  (648) 
CHEMBL1088704

>  <Molecule Name>  (648) 
nan

>  <Molecular Weight>  (648) 
338.28

>  <AlogP>  (648) 
2.27

>  <Smiles>  (648) 
O=C1Nc2ccc([N+](=O)[O-])cc2/C1=C1/Nc2ccc(O)cc2/C1=N/O

>  <Standard Type>  (648) 
Inhibition

>  <Standard Relation>  (648) 
'='

>  <Standard Units>  (648) 
%

>  <Standard Value>  (648) 
9.0

>  <Assay ChEMBL ID>  (648) 
CHEMBL1106493

>  <Assay Description>  (648) 
Inhibition of recombinant TrKa at 1 uM preincubated for 15 mins by HTRF assay

>  <BAO Format ID>  (648) 
BAO_0000357

>  <BAO Label>  (648) 
single protein format

>  <Assay Organism>  (648) 
None

>  <Target ChEMBL ID>  (648) 
CHEMBL2815

>  <Target Name>  (648) 
Nerve growth factor receptor Trk-A

>  <Target Organism>  (648) 
Homo sapiens

>  <Target Type>  (648) 
SINGLE PROTEIN

>  <Document ChEMBL ID>  (648) 
CHEMBL1157914

>  <Source Description>  (648) 
Scientific Literature

>  <Document Journal>  (648) 
J Med Chem

>  <Document Year>  (648) 
2010.0

>  <Active>  (648) 
0.0

>  <bits>  (648) 
<rdkit.DataStructs.cDataStructs.ExplicitBitVect object at 0x00000159F540F290>

>  <Group>  (648) 
G2

$$$$

     RDKit          2D

 21 23  0  0  0  0  0  0  0  0999 V2000
    4.0667   -3.6527    0.0000 N   0  0  0  0  0  0  0  0  0  0  0  0
    2.6401   -3.1891    0.0000 C   0  0  0  0  0  0  0  0  0  0  0  0
    1.2135   -2.7256    0.0000 C   0  0  0  0  0  0  0  0  0  0  0  0
   -0.0000   -3.6073    0.0000 C   0  0  0  0  0  0  0  0  0  0  0  0
   -0.0000   -5.1073    0.0000 N   0  0  0  0  0  0  0  0  0  0  0  0
   -1.2990   -5.8573    0.0000 C   0  0  0  0  0  0  0  0  0  0  0  0
   -2.5981   -5.1073    0.0000 O   0  0  0  0  0  0  0  0  0  0  0  0
   -1.2990   -7.3573    0.0000 C   0  0  0  0  0  0  0  0  0  0  0  0
   -2.5981   -8.1073    0.0000 C   0  0  0  0  0  0  0  0  0  0  0  0
   -2.5981   -9.6073    0.0000 C   0  0  0  0  0  0  0  0  0  0  0  0
   -1.2990  -10.3573    0.0000 C   0  0  0  0  0  0  0  0  0  0  0  0
   -1.2990  -11.8573    0.0000 F   0  0  0  0  0  0  0  0  0  0  0  0
    0.0000   -9.6073    0.0000 C   0  0  0  0  0  0  0  0  0  0  0  0
    0.0000   -8.1073    0.0000 C   0  0  0  0  0  0  0  0  0  0  0  0
   -1.2135   -2.7256    0.0000 S   0  0  0  0  0  0  0  0  0  0  0  0
   -0.7500   -1.2990    0.0000 C   0  0  0  0  0  0  0  0  0  0  0  0
    0.7500   -1.2990    0.0000 C   0  0  0  0  0  0  0  0  0  0  0  0
    1.5000    0.0000    0.0000 C   0  0  0  0  0  0  0  0  0  0  0  0
    0.7500    1.2990    0.0000 C   0  0  0  0  0  0  0  0  0  0  0  0
   -0.7500    1.2990    0.0000 C   0  0  0  0  0  0  0  0  0  0  0  0
   -1.5000    0.0000    0.0000 C   0  0  0  0  0  0  0  0  0  0  0  0
  1  2  3  0
  2  3  1  0
  3  4  2  0
  4  5  1  0
  5  6  1  0
  6  7  2  0
  6  8  1  0
  8  9  2  0
  9 10  1  0
 10 11  2  0
 11 12  1  0
 11 13  1  0
 13 14  2  0
  4 15  1  0
 15 16  1  0
 16 17  2  0
 17 18  1  0
 18 19  1  0
 19 20  1  0
 20 21  1  0
 17  3  1  0
 14  8  1  0
 21 16  1  0
M  END
>  <Compound_ID>  (649) 
CHEMBL397570

>  <Molecule Name>  (649) 
nan

>  <Molecular Weight>  (649) 
300.36

>  <AlogP>  (649) 
3.89

>  <Smiles>  (649) 
N#Cc1c(NC(=O)c2ccc(F)cc2)sc2c1CCCC2

>  <Standard Type>  (649) 
Inhibition

>  <Standard Relation>  (649) 
'='

>  <Standard Units>  (649) 
%

>  <Standard Value>  (649) 
0.08

>  <Assay ChEMBL ID>  (649) 
CHEMBL1962184

>  <Assay Description>  (649) 
GSK_PKIS: TRKA mean inhibition at 0.1 uM [Nanosyn]

>  <BAO Format ID>  (649) 
BAO_0000357

>  <BAO Label>  (649) 
single protein format

>  <Assay Organism>  (649) 
None

>  <Target ChEMBL ID>  (649) 
CHEMBL2815

>  <Target Name>  (649) 
Nerve growth factor receptor Trk-A

>  <Target Organism>  (649) 
Homo sapiens

>  <Target Type>  (649) 
SINGLE PROTEIN

>  <Document ChEMBL ID>  (649) 
CHEMBL1961873

>  <Source Description>  (649) 
GSK Published Kinase Inhibitor Set

>  <Document Journal>  (649) 
nan

>  <Document Year>  (649) 
nan

>  <Active>  (649) 
0.0

>  <bits>  (649) 
<rdkit.DataStructs.cDataStructs.ExplicitBitVect object at 0x00000159F540E9D0>

>  <Group>  (649) 
G2

$$$$

     RDKit          2D

 34 37  0  0  0  0  0  0  0  0999 V2000
    3.0000    0.0000    0.0000 C   0  0  0  0  0  0  0  0  0  0  0  0
    1.5000    0.0000    0.0000 C   0  0  0  0  0  0  0  0  0  0  0  0
    0.7500   -1.2990    0.0000 C   0  0  0  0  0  0  0  0  0  0  0  0
   -0.7500   -1.2990    0.0000 C   0  0  0  0  0  0  0  0  0  0  0  0
   -1.5000    0.0000    0.0000 C   0  0  0  0  0  0  0  0  0  0  0  0
   -0.7500    1.2990    0.0000 C   0  0  0  0  0  0  0  0  0  0  0  0
   -1.5000    2.5981    0.0000 N   0  0  0  0  0  0  0  0  0  0  0  0
   -0.7500    3.8971    0.0000 C   0  0  0  0  0  0  0  0  0  0  0  0
    0.7500    3.8971    0.0000 N   0  0  0  0  0  0  0  0  0  0  0  0
    1.5000    5.1962    0.0000 C   0  0  0  0  0  0  0  0  0  0  0  0
    0.7500    6.4952    0.0000 C   0  0  0  0  0  0  0  0  0  0  0  0
   -0.7500    6.4952    0.0000 C   0  0  0  0  0  0  0  0  0  0  0  0
   -1.5000    7.7942    0.0000 N   0  0  0  0  0  0  0  0  0  0  0  0
   -0.7500    9.0933    0.0000 C   0  0  0  0  0  0  0  0  0  0  0  0
    0.7500    9.0933    0.0000 C   0  0  0  0  0  0  0  0  0  0  0  0
    1.5000   10.3923    0.0000 C   0  0  0  0  0  0  0  0  0  0  0  0
    0.7500   11.6913    0.0000 C   0  0  0  0  0  0  0  0  0  0  0  0
   -0.7500   11.6913    0.0000 C   0  0  0  0  0  0  0  0  0  0  0  0
   -1.5000   12.9904    0.0000 C   0  0  0  0  0  0  0  0  0  0  0  0
   -3.0000   12.9904    0.0000 O   0  0  0  0  0  0  0  0  0  0  0  0
   -0.7500   14.2894    0.0000 N   0  0  0  0  0  0  0  0  0  0  0  0
   -1.5000   15.5885    0.0000 C   0  0  0  0  0  0  0  0  0  0  0  0
   -0.7500   16.8875    0.0000 C   0  0  0  0  0  0  0  0  0  0  0  0
    0.7500   16.8875    0.0000 C   0  0  0  0  0  0  0  0  0  0  0  0
    1.5000   18.1865    0.0000 C   0  0  0  0  0  0  0  0  0  0  0  0
    0.7500   19.4856    0.0000 C   0  0  0  0  0  0  0  0  0  0  0  0
    1.5000   20.7846    0.0000 N   0  0  0  0  0  0  0  0  0  0  0  0
    3.0000   20.7846    0.0000 C   0  0  0  0  0  0  0  0  0  0  0  0
    0.7500   22.0836    0.0000 C   0  0  0  0  0  0  0  0  0  0  0  0
   -0.7500   19.4856    0.0000 C   0  0  0  0  0  0  0  0  0  0  0  0
   -1.5000   18.1865    0.0000 C   0  0  0  0  0  0  0  0  0  0  0  0
   -1.5000   10.3923    0.0000 C   0  0  0  0  0  0  0  0  0  0  0  0
   -1.5000    5.1962    0.0000 N   0  0  0  0  0  0  0  0  0  0  0  0
    0.7500    1.2990    0.0000 C   0  0  0  0  0  0  0  0  0  0  0  0
  1  2  1  0
  2  3  2  0
  3  4  1  0
  4  5  2  0
  5  6  1  0
  6  7  1  0
  7  8  1  0
  8  9  2  0
  9 10  1  0
 10 11  2  0
 11 12  1  0
 12 13  1  0
 13 14  1  0
 14 15  2  0
 15 16  1  0
 16 17  2  0
 17 18  1  0
 18 19  1  0
 19 20  2  0
 19 21  1  0
 21 22  1  0
 22 23  1  0
 23 24  2  0
 24 25  1  0
 25 26  2  0
 26 27  1  0
 27 28  1  0
 27 29  1  0
 26 30  1  0
 30 31  2  0
 18 32  2  0
 12 33  2  0
  6 34  2  0
 34  2  1  0
 33  8  1  0
 32 14  1  0
 31 23  1  0
M  END
>  <Compound_ID>  (650) 
CHEMBL501471

>  <Molecule Name>  (650) 
nan

>  <Molecular Weight>  (650) 
452.56

>  <AlogP>  (650) 
5.27

>  <Smiles>  (650) 
Cc1cccc(Nc2nccc(Nc3cccc(C(=O)NCc4ccc(N(C)C)cc4)c3)n2)c1

>  <Standard Type>  (650) 
Inhibition

>  <Standard Relation>  (650) 
'='

>  <Standard Units>  (650) 
%

>  <Standard Value>  (650) 
7.0

>  <Assay ChEMBL ID>  (650) 
CHEMBL965679

>  <Assay Description>  (650) 
Inhibition of TrkA at 10 uM by HTRF assay relative to control

>  <BAO Format ID>  (650) 
BAO_0000357

>  <BAO Label>  (650) 
single protein format

>  <Assay Organism>  (650) 
None

>  <Target ChEMBL ID>  (650) 
CHEMBL2815

>  <Target Name>  (650) 
Nerve growth factor receptor Trk-A

>  <Target Organism>  (650) 
Homo sapiens

>  <Target Type>  (650) 
SINGLE PROTEIN

>  <Document ChEMBL ID>  (650) 
CHEMBL1150387

>  <Source Description>  (650) 
Scientific Literature

>  <Document Journal>  (650) 
J Med Chem

>  <Document Year>  (650) 
2008.0

>  <Active>  (650) 
0.0

>  <bits>  (650) 
<rdkit.DataStructs.cDataStructs.ExplicitBitVect object at 0x00000159F540FA70>

>  <Group>  (650) 
G2

$$$$

     RDKit          2D

 26 29  0  0  0  0  0  0  0  0999 V2000
   -6.9771   -5.6725    0.0000 N   0  0  0  0  0  0  0  0  0  0  0  0
   -5.4853   -5.8293    0.0000 C   0  0  0  0  0  0  0  0  0  0  0  0
   -4.8752   -7.1996    0.0000 O   0  0  0  0  0  0  0  0  0  0  0  0
   -4.6036   -4.6157    0.0000 C   0  0  0  0  0  0  0  0  0  0  0  0
   -3.1036   -4.6157    0.0000 S   0  0  0  0  0  0  0  0  0  0  0  0
   -2.6401   -3.1891    0.0000 C   0  0  0  0  0  0  0  0  0  0  0  0
   -1.2135   -2.7256    0.0000 N   0  0  0  0  0  0  0  0  0  0  0  0
   -0.0000   -3.6073    0.0000 C   0  0  0  0  0  0  0  0  0  0  0  0
    1.2135   -2.7256    0.0000 N   0  0  0  0  0  0  0  0  0  0  0  0
    0.7500   -1.2990    0.0000 C   0  0  0  0  0  0  0  0  0  0  0  0
    1.5000    0.0000    0.0000 C   0  0  0  0  0  0  0  0  0  0  0  0
    0.7500    1.2990    0.0000 C   0  0  0  0  0  0  0  0  0  0  0  0
   -0.7500    1.2990    0.0000 C   0  0  0  0  0  0  0  0  0  0  0  0
   -1.5000    0.0000    0.0000 C   0  0  0  0  0  0  0  0  0  0  0  0
   -0.7500   -1.2990    0.0000 C   0  0  0  0  0  0  0  0  0  0  0  0
   -3.8536   -2.3075    0.0000 C   0  0  0  0  0  0  0  0  0  0  0  0
   -5.0672   -3.1891    0.0000 C   0  0  0  0  0  0  0  0  0  0  0  0
   -6.4937   -2.7256    0.0000 O   0  0  0  0  0  0  0  0  0  0  0  0
   -6.8056   -1.2584    0.0000 C   0  0  0  0  0  0  0  0  0  0  0  0
   -8.2322   -0.7949    0.0000 C   0  0  0  0  0  0  0  0  0  0  0  0
   -8.5441    0.6723    0.0000 C   0  0  0  0  0  0  0  0  0  0  0  0
   -9.9707    1.1359    0.0000 C   0  0  0  0  0  0  0  0  0  0  0  0
  -11.0854    0.1322    0.0000 C   0  0  0  0  0  0  0  0  0  0  0  0
  -10.7735   -1.3350    0.0000 C   0  0  0  0  0  0  0  0  0  0  0  0
   -9.3469   -1.7986    0.0000 C   0  0  0  0  0  0  0  0  0  0  0  0
   -9.0350   -3.2658    0.0000 Br  0  0  0  0  0  0  0  0  0  0  0  0
  1  2  1  0
  2  3  2  0
  2  4  1  0
  4  5  1  0
  5  6  1  0
  6  7  1  0
  7  8  1  0
  8  9  2  0
  9 10  1  0
 10 11  2  0
 11 12  1  0
 12 13  2  0
 13 14  1  0
 14 15  2  0
  6 16  2  0
 16 17  1  0
 17 18  1  0
 18 19  1  0
 19 20  1  0
 20 21  2  0
 21 22  1  0
 22 23  2  0
 23 24  1  0
 24 25  2  0
 25 26  1  0
 17  4  2  0
 25 20  1  0
 15  7  1  0
 15 10  1  0
M  END
>  <Compound_ID>  (651) 
CHEMBL518953

>  <Molecule Name>  (651) 
GSK-1023156A

>  <Molecular Weight>  (651) 
428.31

>  <AlogP>  (651) 
4.53

>  <Smiles>  (651) 
NC(=O)c1sc(-n2cnc3ccccc32)cc1OCc1ccccc1Br

>  <Standard Type>  (651) 
Inhibition

>  <Standard Relation>  (651) 
'='

>  <Standard Units>  (651) 
%

>  <Standard Value>  (651) 
1.54

>  <Assay ChEMBL ID>  (651) 
CHEMBL1962184

>  <Assay Description>  (651) 
GSK_PKIS: TRKA mean inhibition at 0.1 uM [Nanosyn]

>  <BAO Format ID>  (651) 
BAO_0000357

>  <BAO Label>  (651) 
single protein format

>  <Assay Organism>  (651) 
None

>  <Target ChEMBL ID>  (651) 
CHEMBL2815

>  <Target Name>  (651) 
Nerve growth factor receptor Trk-A

>  <Target Organism>  (651) 
Homo sapiens

>  <Target Type>  (651) 
SINGLE PROTEIN

>  <Document ChEMBL ID>  (651) 
CHEMBL1961873

>  <Source Description>  (651) 
GSK Published Kinase Inhibitor Set

>  <Document Journal>  (651) 
nan

>  <Document Year>  (651) 
nan

>  <Active>  (651) 
0.0

>  <bits>  (651) 
<rdkit.DataStructs.cDataStructs.ExplicitBitVect object at 0x00000159F540E0A0>

>  <Group>  (651) 
G2

$$$$

     RDKit          2D

 26 29  0  0  0  0  0  0  0  0999 V2000
   -0.0000   -5.1073    0.0000 O   0  0  0  0  0  0  0  0  0  0  0  0
   -0.0000   -3.6073    0.0000 C   0  0  0  0  0  0  0  0  0  0  0  0
    1.2135   -2.7256    0.0000 N   0  0  0  0  0  0  0  0  0  0  0  0
    0.7500   -1.2990    0.0000 C   0  0  0  0  0  0  0  0  0  0  0  0
    1.5000    0.0000    0.0000 C   0  0  0  0  0  0  0  0  0  0  0  0
    0.7500    1.2990    0.0000 C   0  0  0  0  0  0  0  0  0  0  0  0
   -0.7500    1.2990    0.0000 C   0  0  0  0  0  0  0  0  0  0  0  0
   -1.5000    2.5981    0.0000 C   0  0  0  0  0  0  0  0  0  0  0  0
   -0.7500    3.8971    0.0000 C   0  0  0  0  0  0  0  0  0  0  0  0
   -1.5000    5.1962    0.0000 C   0  0  0  0  0  0  0  0  0  0  0  0
   -3.0000    5.1962    0.0000 C   0  0  0  0  0  0  0  0  0  0  0  0
   -3.7500    3.8971    0.0000 N   0  0  0  0  0  0  0  0  0  0  0  0
   -3.0000    2.5981    0.0000 C   0  0  0  0  0  0  0  0  0  0  0  0
   -1.5000    0.0000    0.0000 C   0  0  0  0  0  0  0  0  0  0  0  0
   -0.7500   -1.2990    0.0000 C   0  0  0  0  0  0  0  0  0  0  0  0
   -1.2135   -2.7256    0.0000 C   0  0  0  0  0  0  0  0  0  0  0  0
   -2.6401   -3.1891    0.0000 C   0  0  0  0  0  0  0  0  0  0  0  0
   -2.9520   -4.6564    0.0000 C   0  0  0  0  0  0  0  0  0  0  0  0
   -4.3786   -5.1199    0.0000 C   0  0  0  0  0  0  0  0  0  0  0  0
   -4.6904   -6.5871    0.0000 C   0  0  0  0  0  0  0  0  0  0  0  0
   -6.1170   -7.0506    0.0000 Br  0  0  0  0  0  0  0  0  0  0  0  0
   -3.5757   -7.5908    0.0000 C   0  0  0  0  0  0  0  0  0  0  0  0
   -3.8876   -9.0580    0.0000 O   0  0  0  0  0  0  0  0  0  0  0  0
   -2.1491   -7.1273    0.0000 C   0  0  0  0  0  0  0  0  0  0  0  0
   -1.0344   -8.1310    0.0000 Br  0  0  0  0  0  0  0  0  0  0  0  0
   -1.8373   -5.6601    0.0000 C   0  0  0  0  0  0  0  0  0  0  0  0
  1  2  2  0
  2  3  1  0
  3  4  1  0
  4  5  2  0
  5  6  1  0
  6  7  2  0
  7  8  1  0
  8  9  2  0
  9 10  1  0
 10 11  2  0
 11 12  1  0
 12 13  2  0
  7 14  1  0
 14 15  2  0
 15 16  1  0
 16 17  2  3
 17 18  1  0
 18 19  2  0
 19 20  1  0
 20 21  1  0
 20 22  2  0
 22 23  1  0
 22 24  1  0
 24 25  1  0
 24 26  2  0
 16  2  1  0
 26 18  1  0
 15  4  1  0
 13  8  1  0
M  END
>  <Compound_ID>  (652) 
CHEMBL1794050

>  <Molecule Name>  (652) 
GW429374A

>  <Molecular Weight>  (652) 
508.6

>  <AlogP>  (652) 
5.47

>  <Smiles>  (652) 
O=C1Nc2ccc(-c3cccnc3)cc2C1=Cc1cc(Br)c(O)c(Br)c1

>  <Standard Type>  (652) 
Inhibition

>  <Standard Relation>  (652) 
'='

>  <Standard Units>  (652) 
%

>  <Standard Value>  (652) 
4.7

>  <Assay ChEMBL ID>  (652) 
CHEMBL1962184

>  <Assay Description>  (652) 
GSK_PKIS: TRKA mean inhibition at 0.1 uM [Nanosyn]

>  <BAO Format ID>  (652) 
BAO_0000357

>  <BAO Label>  (652) 
single protein format

>  <Assay Organism>  (652) 
None

>  <Target ChEMBL ID>  (652) 
CHEMBL2815

>  <Target Name>  (652) 
Nerve growth factor receptor Trk-A

>  <Target Organism>  (652) 
Homo sapiens

>  <Target Type>  (652) 
SINGLE PROTEIN

>  <Document ChEMBL ID>  (652) 
CHEMBL1961873

>  <Source Description>  (652) 
GSK Published Kinase Inhibitor Set

>  <Document Journal>  (652) 
nan

>  <Document Year>  (652) 
nan

>  <Active>  (652) 
0.0

>  <bits>  (652) 
<rdkit.DataStructs.cDataStructs.ExplicitBitVect object at 0x00000159F540EB90>

>  <Group>  (652) 
G2

$$$$

     RDKit          2D

 31 34  0  0  0  0  0  0  0  0999 V2000
    3.0000    0.0000    0.0000 N   0  0  0  0  0  0  0  0  0  0  0  0
    1.5000    0.0000    0.0000 C   0  0  0  0  0  0  0  0  0  0  0  0
    0.7500   -1.2990    0.0000 N   0  0  0  0  0  0  0  0  0  0  0  0
   -0.7500   -1.2990    0.0000 C   0  0  0  0  0  0  0  0  0  0  0  0
   -1.5000   -2.5981    0.0000 N   0  0  0  0  0  0  0  0  0  0  0  0
   -3.0000   -2.5981    0.0000 C   0  0  0  0  0  0  0  0  0  0  0  0
   -3.7500   -1.2990    0.0000 C   0  0  0  0  0  0  0  0  0  0  0  0
   -5.2500   -1.2990    0.0000 C   0  0  0  0  0  0  0  0  0  0  0  0
   -6.0000   -2.5981    0.0000 C   0  0  0  0  0  0  0  0  0  0  0  0
   -5.2500   -3.8971    0.0000 C   0  0  0  0  0  0  0  0  0  0  0  0
   -3.7500   -3.8971    0.0000 C   0  0  0  0  0  0  0  0  0  0  0  0
   -1.5000    0.0000    0.0000 C   0  0  0  0  0  0  0  0  0  0  0  0
   -0.7500    1.2990    0.0000 C   0  0  0  0  0  0  0  0  0  0  0  0
   -1.5000    2.5981    0.0000 N   0  0  0  0  0  0  0  0  0  0  0  0
   -0.7500    3.8971    0.0000 C   0  0  0  0  0  0  0  0  0  0  0  0
   -1.5000    5.1962    0.0000 C   0  0  0  0  0  0  0  0  0  0  0  0
   -3.0000    5.1962    0.0000 C   0  0  0  0  0  0  0  0  0  0  0  0
   -3.7500    6.4952    0.0000 C   0  0  0  0  0  0  0  0  0  0  0  0
   -5.2500    6.4952    0.0000 O   0  0  0  0  0  0  0  0  0  0  0  0
   -3.0000    7.7942    0.0000 N   0  0  0  0  0  0  0  0  0  0  0  0
   -3.7500    9.0933    0.0000 C   0  0  0  0  0  0  0  0  0  0  0  0
   -3.0000   10.3923    0.0000 C   0  0  0  0  0  0  0  0  0  0  0  0
   -3.7500   11.6913    0.0000 C   0  0  0  0  0  0  0  0  0  0  0  0
   -3.0000   12.9904    0.0000 C   0  0  0  0  0  0  0  0  0  0  0  0
   -3.7500   14.2894    0.0000 C   0  0  0  0  0  0  0  0  0  0  0  0
   -5.2500   14.2894    0.0000 C   0  0  0  0  0  0  0  0  0  0  0  0
   -6.0000   12.9904    0.0000 C   0  0  0  0  0  0  0  0  0  0  0  0
   -5.2500   11.6913    0.0000 N   0  0  0  0  0  0  0  0  0  0  0  0
   -3.7500    3.8971    0.0000 C   0  0  0  0  0  0  0  0  0  0  0  0
   -3.0000    2.5981    0.0000 C   0  0  0  0  0  0  0  0  0  0  0  0
    0.7500    1.2990    0.0000 N   0  0  0  0  0  0  0  0  0  0  0  0
  1  2  1  0
  2  3  2  0
  3  4  1  0
  4  5  1  0
  5  6  1  0
  6  7  2  0
  7  8  1  0
  8  9  2  0
  9 10  1  0
 10 11  2  0
  4 12  2  0
 12 13  1  0
 13 14  1  0
 14 15  1  0
 15 16  1  0
 16 17  1  0
 17 18  1  0
 18 19  2  0
 18 20  1  0
 20 21  1  0
 21 22  1  0
 22 23  1  0
 23 24  2  0
 24 25  1  0
 25 26  2  0
 26 27  1  0
 27 28  2  0
 17 29  1  0
 29 30  1  0
 13 31  2  0
 31  2  1  0
 11  6  1  0
 30 14  1  0
 28 23  1  0
M  END
>  <Compound_ID>  (653) 
CHEMBL521002

>  <Molecule Name>  (653) 
nan

>  <Molecular Weight>  (653) 
417.52

>  <AlogP>  (653) 
2.77

>  <Smiles>  (653) 
Nc1nc(Nc2ccccc2)cc(N2CCC(C(=O)NCCc3ccccn3)CC2)n1

>  <Standard Type>  (653) 
Inhibition

>  <Standard Relation>  (653) 
'='

>  <Standard Units>  (653) 
%

>  <Standard Value>  (653) 
5.0

>  <Assay ChEMBL ID>  (653) 
CHEMBL965679

>  <Assay Description>  (653) 
Inhibition of TrkA at 10 uM by HTRF assay relative to control

>  <BAO Format ID>  (653) 
BAO_0000357

>  <BAO Label>  (653) 
single protein format

>  <Assay Organism>  (653) 
None

>  <Target ChEMBL ID>  (653) 
CHEMBL2815

>  <Target Name>  (653) 
Nerve growth factor receptor Trk-A

>  <Target Organism>  (653) 
Homo sapiens

>  <Target Type>  (653) 
SINGLE PROTEIN

>  <Document ChEMBL ID>  (653) 
CHEMBL1150387

>  <Source Description>  (653) 
Scientific Literature

>  <Document Journal>  (653) 
J Med Chem

>  <Document Year>  (653) 
2008.0

>  <Active>  (653) 
0.0

>  <bits>  (653) 
<rdkit.DataStructs.cDataStructs.ExplicitBitVect object at 0x00000159F540E030>

>  <Group>  (653) 
G2

$$$$

     RDKit          2D

 31 34  0  0  0  0  0  0  0  0999 V2000
    3.0000    0.0000    0.0000 F   0  0  0  0  0  0  0  0  0  0  0  0
    1.5000    0.0000    0.0000 C   0  0  0  0  0  0  0  0  0  0  0  0
    0.7500   -1.2990    0.0000 C   0  0  0  0  0  0  0  0  0  0  0  0
   -0.7500   -1.2990    0.0000 C   0  0  0  0  0  0  0  0  0  0  0  0
   -1.5000    0.0000    0.0000 C   0  0  0  0  0  0  0  0  0  0  0  0
   -0.7500    1.2990    0.0000 C   0  0  0  0  0  0  0  0  0  0  0  0
   -1.5000    2.5981    0.0000 C   0  0  0  0  0  0  0  0  0  0  0  0
   -0.7500    3.8971    0.0000 O   0  0  0  0  0  0  0  0  0  0  0  0
   -1.5000    5.1962    0.0000 C   0  0  0  0  0  0  0  0  0  0  0  0
   -0.7500    6.4952    0.0000 C   0  0  0  0  0  0  0  0  0  0  0  0
   -1.5000    7.7942    0.0000 C   0  0  0  0  0  0  0  0  0  0  0  0
   -3.0000    7.7942    0.0000 C   0  0  0  0  0  0  0  0  0  0  0  0
   -3.7500    9.0933    0.0000 N   0  0  0  0  0  0  0  0  0  0  0  0
   -3.0000   10.3923    0.0000 C   0  0  0  0  0  0  0  0  0  0  0  0
   -1.5000   10.3923    0.0000 N   0  0  0  0  0  0  0  0  0  0  0  0
   -0.7500   11.6913    0.0000 C   0  0  0  0  0  0  0  0  0  0  0  0
   -1.5000   12.9904    0.0000 N   0  0  0  0  0  0  0  0  0  0  0  0
   -3.0000   12.9904    0.0000 C   0  0  0  0  0  0  0  0  0  0  0  0
   -3.7500   11.6913    0.0000 C   0  0  0  0  0  0  0  0  0  0  0  0
   -5.2500   11.6913    0.0000 C   0  0  0  0  0  0  0  0  0  0  0  0
   -6.7500   11.6913    0.0000 C   0  0  0  0  0  0  0  0  0  0  0  0
   -8.2500   11.6913    0.0000 C   0  0  0  0  0  0  0  0  0  0  0  0
   -9.0000   12.9904    0.0000 C   0  0  0  0  0  0  0  0  0  0  0  0
  -10.5000   12.9904    0.0000 C   0  0  0  0  0  0  0  0  0  0  0  0
  -11.2500   11.6913    0.0000 C   0  0  0  0  0  0  0  0  0  0  0  0
  -10.5000   10.3923    0.0000 C   0  0  0  0  0  0  0  0  0  0  0  0
   -9.0000   10.3923    0.0000 C   0  0  0  0  0  0  0  0  0  0  0  0
   -3.7500    6.4952    0.0000 C   0  0  0  0  0  0  0  0  0  0  0  0
   -3.0000    5.1962    0.0000 C   0  0  0  0  0  0  0  0  0  0  0  0
   -3.7500    3.8971    0.0000 Cl  0  0  0  0  0  0  0  0  0  0  0  0
    0.7500    1.2990    0.0000 C   0  0  0  0  0  0  0  0  0  0  0  0
  1  2  1  0
  2  3  2  0
  3  4  1  0
  4  5  2  0
  5  6  1  0
  6  7  1  0
  7  8  1  0
  8  9  1  0
  9 10  2  0
 10 11  1  0
 11 12  2  0
 12 13  1  0
 13 14  1  0
 14 15  2  0
 15 16  1  0
 16 17  2  0
 17 18  1  0
 18 19  2  0
 19 20  1  0
 20 21  3  0
 21 22  1  0
 22 23  2  0
 23 24  1  0
 24 25  2  0
 25 26  1  0
 26 27  2  0
 12 28  1  0
 28 29  2  0
 29 30  1  0
  6 31  2  0
 31  2  1  0
 29  9  1  0
 19 14  1  0
 27 22  1  0
M  END
>  <Compound_ID>  (654) 
CHEMBL379093

>  <Molecule Name>  (654) 
GW651576X

>  <Molecular Weight>  (654) 
429.88

>  <AlogP>  (654) 
5.99

>  <Smiles>  (654) 
Fc1cccc(COc2ccc(Nc3ncncc3C#Cc3ccccc3)cc2Cl)c1

>  <Standard Type>  (654) 
Inhibition

>  <Standard Relation>  (654) 
'='

>  <Standard Units>  (654) 
%

>  <Standard Value>  (654) 
2.13

>  <Assay ChEMBL ID>  (654) 
CHEMBL1962185

>  <Assay Description>  (654) 
GSK_PKIS: TRKA mean inhibition at 1 uM [Nanosyn]

>  <BAO Format ID>  (654) 
BAO_0000357

>  <BAO Label>  (654) 
single protein format

>  <Assay Organism>  (654) 
None

>  <Target ChEMBL ID>  (654) 
CHEMBL2815

>  <Target Name>  (654) 
Nerve growth factor receptor Trk-A

>  <Target Organism>  (654) 
Homo sapiens

>  <Target Type>  (654) 
SINGLE PROTEIN

>  <Document ChEMBL ID>  (654) 
CHEMBL1961873

>  <Source Description>  (654) 
GSK Published Kinase Inhibitor Set

>  <Document Journal>  (654) 
nan

>  <Document Year>  (654) 
nan

>  <Active>  (654) 
0.0

>  <bits>  (654) 
<rdkit.DataStructs.cDataStructs.ExplicitBitVect object at 0x00000159F540E5E0>

>  <Group>  (654) 
G2

$$$$

     RDKit          2D

 20 23  0  0  0  0  0  0  0  0999 V2000
   -1.8373   -5.6601    0.0000 O   0  0  0  0  0  0  0  0  0  0  0  0
   -2.9520   -4.6564    0.0000 C   0  0  0  0  0  0  0  0  0  0  0  0
   -2.6401   -3.1891    0.0000 N   0  0  0  0  0  0  0  0  0  0  0  0
   -1.2135   -2.7256    0.0000 C   0  0  0  0  0  0  0  0  0  0  0  0
   -0.0000   -3.6073    0.0000 N   0  0  0  0  0  0  0  0  0  0  0  0
    1.2135   -2.7256    0.0000 N   0  0  0  0  0  0  0  0  0  0  0  0
    0.7500   -1.2990    0.0000 C   0  0  0  0  0  0  0  0  0  0  0  0
    1.5000    0.0000    0.0000 N   0  0  0  0  0  0  0  0  0  0  0  0
    0.7500    1.2990    0.0000 C   0  0  0  0  0  0  0  0  0  0  0  0
    1.5000    2.5981    0.0000 C   0  0  0  0  0  0  0  0  0  0  0  0
    0.8899    3.9684    0.0000 C   0  0  0  0  0  0  0  0  0  0  0  0
    2.0046    4.9721    0.0000 C   0  0  0  0  0  0  0  0  0  0  0  0
    3.3037    4.2221    0.0000 C   0  0  0  0  0  0  0  0  0  0  0  0
    2.9918    2.7549    0.0000 O   0  0  0  0  0  0  0  0  0  0  0  0
   -0.7500    1.2990    0.0000 C   0  0  0  0  0  0  0  0  0  0  0  0
   -1.5000    0.0000    0.0000 C   0  0  0  0  0  0  0  0  0  0  0  0
   -0.7500   -1.2990    0.0000 C   0  0  0  0  0  0  0  0  0  0  0  0
   -4.3786   -5.1199    0.0000 C   0  0  0  0  0  0  0  0  0  0  0  0
   -5.3823   -6.2346    0.0000 C   0  0  0  0  0  0  0  0  0  0  0  0
   -5.8458   -4.8080    0.0000 C   0  0  0  0  0  0  0  0  0  0  0  0
  1  2  2  0
  2  3  1  0
  3  4  1  0
  4  5  2  0
  5  6  1  0
  6  7  1  0
  7  8  2  0
  8  9  1  0
  9 10  1  0
 10 11  2  0
 11 12  1  0
 12 13  2  0
 13 14  1  0
  9 15  2  0
 15 16  1  0
 16 17  2  0
  2 18  1  0
 18 19  1  0
 19 20  1  0
 17  4  1  0
 20 18  1  0
 17  7  1  0
 14 10  1  0
M  END
>  <Compound_ID>  (655) 
CHEMBL101804

>  <Molecule Name>  (655) 
nan

>  <Molecular Weight>  (655) 
268.28

>  <AlogP>  (655) 
2.57

>  <Smiles>  (655) 
O=C(Nc1n[nH]c2nc(-c3ccco3)ccc12)C1CC1

>  <Standard Type>  (655) 
Inhibition

>  <Standard Relation>  (655) 
'='

>  <Standard Units>  (655) 
%

>  <Standard Value>  (655) 
3.29

>  <Assay ChEMBL ID>  (655) 
CHEMBL1962185

>  <Assay Description>  (655) 
GSK_PKIS: TRKA mean inhibition at 1 uM [Nanosyn]

>  <BAO Format ID>  (655) 
BAO_0000357

>  <BAO Label>  (655) 
single protein format

>  <Assay Organism>  (655) 
None

>  <Target ChEMBL ID>  (655) 
CHEMBL2815

>  <Target Name>  (655) 
Nerve growth factor receptor Trk-A

>  <Target Organism>  (655) 
Homo sapiens

>  <Target Type>  (655) 
SINGLE PROTEIN

>  <Document ChEMBL ID>  (655) 
CHEMBL1961873

>  <Source Description>  (655) 
GSK Published Kinase Inhibitor Set

>  <Document Journal>  (655) 
nan

>  <Document Year>  (655) 
nan

>  <Active>  (655) 
0.0

>  <bits>  (655) 
<rdkit.DataStructs.cDataStructs.ExplicitBitVect object at 0x00000159F540E260>

>  <Group>  (655) 
G2

$$$$

     RDKit          2D

 26 29  0  0  0  0  0  0  0  0999 V2000
   -9.1645    1.7722    0.0000 C   0  0  0  0  0  0  0  0  0  0  0  0
   -8.0498    0.7685    0.0000 O   0  0  0  0  0  0  0  0  0  0  0  0
   -6.6232    1.2320    0.0000 C   0  0  0  0  0  0  0  0  0  0  0  0
   -6.3114    2.6992    0.0000 C   0  0  0  0  0  0  0  0  0  0  0  0
   -4.8848    3.1627    0.0000 C   0  0  0  0  0  0  0  0  0  0  0  0
   -3.7701    2.1590    0.0000 C   0  0  0  0  0  0  0  0  0  0  0  0
   -4.0819    0.6918    0.0000 C   0  0  0  0  0  0  0  0  0  0  0  0
   -2.9672   -0.3119    0.0000 N   0  0  0  0  0  0  0  0  0  0  0  0
   -3.1240   -1.8037    0.0000 C   0  0  0  0  0  0  0  0  0  0  0  0
   -1.7537   -2.4138    0.0000 N   0  0  0  0  0  0  0  0  0  0  0  0
   -0.7500   -1.2990    0.0000 C   0  0  0  0  0  0  0  0  0  0  0  0
    0.7500   -1.2990    0.0000 C   0  0  0  0  0  0  0  0  0  0  0  0
    1.5000   -2.5981    0.0000 N   0  0  0  0  0  0  0  0  0  0  0  0
    3.0000   -2.5981    0.0000 N   0  0  0  0  0  0  0  0  0  0  0  0
    3.7500   -3.8971    0.0000 C   0  0  0  0  0  0  0  0  0  0  0  0
    5.2500   -3.8971    0.0000 C   0  0  0  0  0  0  0  0  0  0  0  0
    6.0000   -5.1962    0.0000 C   0  0  0  0  0  0  0  0  0  0  0  0
    7.5000   -5.1962    0.0000 C   0  0  0  0  0  0  0  0  0  0  0  0
    8.2500   -3.8971    0.0000 N   0  0  0  0  0  0  0  0  0  0  0  0
    7.5000   -2.5981    0.0000 C   0  0  0  0  0  0  0  0  0  0  0  0
    6.0000   -2.5981    0.0000 C   0  0  0  0  0  0  0  0  0  0  0  0
    1.5000    0.0000    0.0000 N   0  0  0  0  0  0  0  0  0  0  0  0
    0.7500    1.2990    0.0000 C   0  0  0  0  0  0  0  0  0  0  0  0
   -0.7500    1.2990    0.0000 N   0  0  0  0  0  0  0  0  0  0  0  0
   -1.5000    0.0000    0.0000 C   0  0  0  0  0  0  0  0  0  0  0  0
   -5.5085    0.2283    0.0000 C   0  0  0  0  0  0  0  0  0  0  0  0
  1  2  1  0
  2  3  1  0
  3  4  2  0
  4  5  1  0
  5  6  2  0
  6  7  1  0
  7  8  1  0
  8  9  1  0
  9 10  2  0
 10 11  1  0
 11 12  2  0
 12 13  1  0
 13 14  1  0
 14 15  2  0
 15 16  1  0
 16 17  2  0
 17 18  1  0
 18 19  2  0
 19 20  1  0
 20 21  2  0
 12 22  1  0
 22 23  2  0
 23 24  1  0
 24 25  2  0
  7 26  2  0
 26  3  1  0
 25  8  1  0
 25 11  1  0
 21 16  1  0
M  END
>  <Compound_ID>  (656) 
CHEMBL204934

>  <Molecule Name>  (656) 
GW813360X

>  <Molecular Weight>  (656) 
345.37

>  <AlogP>  (656) 
2.67

>  <Smiles>  (656) 
COc1cccc(-n2cnc3c(N/N=C/c4ccncc4)ncnc32)c1

>  <Standard Type>  (656) 
Inhibition

>  <Standard Relation>  (656) 
'='

>  <Standard Units>  (656) 
%

>  <Standard Value>  (656) 
-1.67

>  <Assay ChEMBL ID>  (656) 
CHEMBL1962184

>  <Assay Description>  (656) 
GSK_PKIS: TRKA mean inhibition at 0.1 uM [Nanosyn]

>  <BAO Format ID>  (656) 
BAO_0000357

>  <BAO Label>  (656) 
single protein format

>  <Assay Organism>  (656) 
None

>  <Target ChEMBL ID>  (656) 
CHEMBL2815

>  <Target Name>  (656) 
Nerve growth factor receptor Trk-A

>  <Target Organism>  (656) 
Homo sapiens

>  <Target Type>  (656) 
SINGLE PROTEIN

>  <Document ChEMBL ID>  (656) 
CHEMBL1961873

>  <Source Description>  (656) 
GSK Published Kinase Inhibitor Set

>  <Document Journal>  (656) 
nan

>  <Document Year>  (656) 
nan

>  <Active>  (656) 
0.0

>  <bits>  (656) 
<rdkit.DataStructs.cDataStructs.ExplicitBitVect object at 0x00000159F540EF10>

>  <Group>  (656) 
G2

$$$$

     RDKit          2D

 32 36  0  0  0  0  0  0  0  0999 V2000
    5.1187   10.9439    0.0000 O   0  0  0  0  0  0  0  0  0  0  0  0
    4.8068    9.4767    0.0000 C   0  0  0  0  0  0  0  0  0  0  0  0
    5.9215    8.4730    0.0000 C   0  0  0  0  0  0  0  0  0  0  0  0
    7.3481    8.9365    0.0000 O   0  0  0  0  0  0  0  0  0  0  0  0
    8.4628    7.9328    0.0000 C   0  0  0  0  0  0  0  0  0  0  0  0
    8.1510    6.4656    0.0000 C   0  0  0  0  0  0  0  0  0  0  0  0
    9.2657    5.4619    0.0000 C   0  0  0  0  0  0  0  0  0  0  0  0
   10.6923    5.9254    0.0000 C   0  0  0  0  0  0  0  0  0  0  0  0
   11.0041    7.3926    0.0000 C   0  0  0  0  0  0  0  0  0  0  0  0
    9.8894    8.3963    0.0000 C   0  0  0  0  0  0  0  0  0  0  0  0
    3.3802    9.0132    0.0000 N   0  0  0  0  0  0  0  0  0  0  0  0
    2.2655   10.0169    0.0000 C   0  0  0  0  0  0  0  0  0  0  0  0
    0.8389    9.5533    0.0000 C   0  0  0  0  0  0  0  0  0  0  0  0
    0.5271    8.0861    0.0000 N   0  0  0  0  0  0  0  0  0  0  0  0
   -0.8995    7.6226    0.0000 C   0  0  0  0  0  0  0  0  0  0  0  0
   -2.0143    8.6263    0.0000 N   0  0  0  0  0  0  0  0  0  0  0  0
   -3.4408    8.1628    0.0000 C   0  0  0  0  0  0  0  0  0  0  0  0
   -3.7527    6.6955    0.0000 C   0  0  0  0  0  0  0  0  0  0  0  0
   -2.6380    5.6918    0.0000 C   0  0  0  0  0  0  0  0  0  0  0  0
   -2.9499    4.2246    0.0000 N   0  0  0  0  0  0  0  0  0  0  0  0
   -1.8351    3.2209    0.0000 C   0  0  0  0  0  0  0  0  0  0  0  0
   -0.4086    3.6844    0.0000 C   0  0  0  0  0  0  0  0  0  0  0  0
    0.7062    2.6807    0.0000 C   0  0  0  0  0  0  0  0  0  0  0  0
    0.3943    1.2135    0.0000 C   0  0  0  0  0  0  0  0  0  0  0  0
    1.2760    0.0000    0.0000 N   0  0  0  0  0  0  0  0  0  0  0  0
    0.3943   -1.2135    0.0000 C   0  0  0  0  0  0  0  0  0  0  0  0
   -1.0323   -0.7500    0.0000 S   0  0  0  0  0  0  0  0  0  0  0  0
   -1.0323    0.7500    0.0000 C   0  0  0  0  0  0  0  0  0  0  0  0
   -2.1470    1.7537    0.0000 C   0  0  0  0  0  0  0  0  0  0  0  0
   -1.2114    6.1554    0.0000 N   0  0  0  0  0  0  0  0  0  0  0  0
    1.6418    7.0824    0.0000 C   0  0  0  0  0  0  0  0  0  0  0  0
    3.0684    7.5459    0.0000 C   0  0  0  0  0  0  0  0  0  0  0  0
  1  2  2  0
  2  3  1  0
  3  4  1  0
  4  5  1  0
  5  6  2  0
  6  7  1  0
  7  8  2  0
  8  9  1  0
  9 10  2  0
  2 11  1  0
 11 12  1  0
 12 13  1  0
 13 14  1  0
 14 15  1  0
 15 16  2  0
 16 17  1  0
 17 18  2  0
 18 19  1  0
 19 20  1  0
 20 21  1  0
 21 22  2  0
 22 23  1  0
 23 24  2  0
 24 25  1  0
 25 26  2  0
 26 27  1  0
 27 28  1  0
 28 29  2  0
 19 30  2  0
 14 31  1  0
 31 32  1  0
 10  5  1  0
 32 11  1  0
 30 15  1  0
 29 21  1  0
 28 24  1  0
M  END
>  <Compound_ID>  (657) 
CHEMBL482488

>  <Molecule Name>  (657) 
nan

>  <Molecular Weight>  (657) 
446.54

>  <AlogP>  (657) 
3.56

>  <Smiles>  (657) 
O=C(COc1ccccc1)N1CCN(c2nccc(Nc3ccc4ncsc4c3)n2)CC1

>  <Standard Type>  (657) 
Inhibition

>  <Standard Relation>  (657) 
'='

>  <Standard Units>  (657) 
%

>  <Standard Value>  (657) 
9.0

>  <Assay ChEMBL ID>  (657) 
CHEMBL965679

>  <Assay Description>  (657) 
Inhibition of TrkA at 10 uM by HTRF assay relative to control

>  <BAO Format ID>  (657) 
BAO_0000357

>  <BAO Label>  (657) 
single protein format

>  <Assay Organism>  (657) 
None

>  <Target ChEMBL ID>  (657) 
CHEMBL2815

>  <Target Name>  (657) 
Nerve growth factor receptor Trk-A

>  <Target Organism>  (657) 
Homo sapiens

>  <Target Type>  (657) 
SINGLE PROTEIN

>  <Document ChEMBL ID>  (657) 
CHEMBL1150387

>  <Source Description>  (657) 
Scientific Literature

>  <Document Journal>  (657) 
J Med Chem

>  <Document Year>  (657) 
2008.0

>  <Active>  (657) 
0.0

>  <bits>  (657) 
<rdkit.DataStructs.cDataStructs.ExplicitBitVect object at 0x00000159F540DFC0>

>  <Group>  (657) 
G2

$$$$

     RDKit          2D

 18 20  0  0  0  0  0  0  0  0999 V2000
   -3.7548   -2.1855    0.0000 C   0  0  0  0  0  0  0  0  0  0  0  0
   -2.6401   -3.1891    0.0000 C   0  0  0  0  0  0  0  0  0  0  0  0
   -1.2135   -2.7256    0.0000 N   0  0  0  0  0  0  0  0  0  0  0  0
   -0.0000   -3.6073    0.0000 C   0  0  0  0  0  0  0  0  0  0  0  0
   -0.0000   -5.1073    0.0000 C   0  0  0  0  0  0  0  0  0  0  0  0
    1.2135   -5.9890    0.0000 N   0  0  0  0  0  0  0  0  0  0  0  0
    0.7500   -7.4156    0.0000 O   0  0  0  0  0  0  0  0  0  0  0  0
   -0.7500   -7.4156    0.0000 N   0  0  0  0  0  0  0  0  0  0  0  0
   -1.2135   -5.9890    0.0000 C   0  0  0  0  0  0  0  0  0  0  0  0
   -2.6401   -5.5255    0.0000 N   0  0  0  0  0  0  0  0  0  0  0  0
    1.2135   -2.7256    0.0000 N   0  0  0  0  0  0  0  0  0  0  0  0
    0.7500   -1.2990    0.0000 C   0  0  0  0  0  0  0  0  0  0  0  0
    1.5000    0.0000    0.0000 C   0  0  0  0  0  0  0  0  0  0  0  0
    0.7500    1.2990    0.0000 C   0  0  0  0  0  0  0  0  0  0  0  0
   -0.7500    1.2990    0.0000 C   0  0  0  0  0  0  0  0  0  0  0  0
   -1.5000    2.5981    0.0000 F   0  0  0  0  0  0  0  0  0  0  0  0
   -1.5000    0.0000    0.0000 C   0  0  0  0  0  0  0  0  0  0  0  0
   -0.7500   -1.2990    0.0000 C   0  0  0  0  0  0  0  0  0  0  0  0
  1  2  1  0
  2  3  1  0
  3  4  1  0
  4  5  1  0
  5  6  2  0
  6  7  1  0
  7  8  1  0
  8  9  2  0
  9 10  1  0
  4 11  2  0
 11 12  1  0
 12 13  2  0
 13 14  1  0
 14 15  2  0
 15 16  1  0
 15 17  1  0
 17 18  2  0
 18  3  1  0
  9  5  1  0
 18 12  1  0
M  END
>  <Compound_ID>  (658) 
CHEMBL426800

>  <Molecule Name>  (658) 
GW785404X

>  <Molecular Weight>  (658) 
247.23

>  <AlogP>  (658) 
1.83

>  <Smiles>  (658) 
CCn1c(-c2nonc2N)nc2ccc(F)cc21

>  <Standard Type>  (658) 
Inhibition

>  <Standard Relation>  (658) 
'='

>  <Standard Units>  (658) 
%

>  <Standard Value>  (658) 
2.84

>  <Assay ChEMBL ID>  (658) 
CHEMBL1962185

>  <Assay Description>  (658) 
GSK_PKIS: TRKA mean inhibition at 1 uM [Nanosyn]

>  <BAO Format ID>  (658) 
BAO_0000357

>  <BAO Label>  (658) 
single protein format

>  <Assay Organism>  (658) 
None

>  <Target ChEMBL ID>  (658) 
CHEMBL2815

>  <Target Name>  (658) 
Nerve growth factor receptor Trk-A

>  <Target Organism>  (658) 
Homo sapiens

>  <Target Type>  (658) 
SINGLE PROTEIN

>  <Document ChEMBL ID>  (658) 
CHEMBL1961873

>  <Source Description>  (658) 
GSK Published Kinase Inhibitor Set

>  <Document Journal>  (658) 
nan

>  <Document Year>  (658) 
nan

>  <Active>  (658) 
0.0

>  <bits>  (658) 
<rdkit.DataStructs.cDataStructs.ExplicitBitVect object at 0x00000159F540ECE0>

>  <Group>  (658) 
G2

$$$$

     RDKit          2D

 26 29  0  0  0  0  0  0  0  0999 V2000
    3.0000    0.0000    0.0000 C   0  0  0  0  0  0  0  0  0  0  0  0
    1.5000    0.0000    0.0000 N   0  0  0  0  0  0  0  0  0  0  0  0
    0.7500   -1.2990    0.0000 C   0  0  0  0  0  0  0  0  0  0  0  0
   -0.7500   -1.2990    0.0000 C   0  0  0  0  0  0  0  0  0  0  0  0
   -1.5000    0.0000    0.0000 C   0  0  0  0  0  0  0  0  0  0  0  0
   -3.0000    0.0000    0.0000 N   0  0  0  0  0  0  0  0  0  0  0  0
   -3.8817   -1.2135    0.0000 C   0  0  0  0  0  0  0  0  0  0  0  0
   -5.3083   -0.7500    0.0000 N   0  0  0  0  0  0  0  0  0  0  0  0
   -5.3083    0.7500    0.0000 C   0  0  0  0  0  0  0  0  0  0  0  0
   -6.5218    1.6317    0.0000 C   0  0  0  0  0  0  0  0  0  0  0  0
   -6.3650    3.1235    0.0000 C   0  0  0  0  0  0  0  0  0  0  0  0
   -7.5785    4.0051    0.0000 C   0  0  0  0  0  0  0  0  0  0  0  0
   -8.9488    3.3950    0.0000 C   0  0  0  0  0  0  0  0  0  0  0  0
  -10.1624    4.2767    0.0000 F   0  0  0  0  0  0  0  0  0  0  0  0
   -9.1056    1.9033    0.0000 C   0  0  0  0  0  0  0  0  0  0  0  0
   -7.8921    1.0216    0.0000 C   0  0  0  0  0  0  0  0  0  0  0  0
   -3.8817    1.2135    0.0000 C   0  0  0  0  0  0  0  0  0  0  0  0
   -3.4182    2.6401    0.0000 C   0  0  0  0  0  0  0  0  0  0  0  0
   -1.9509    2.9520    0.0000 C   0  0  0  0  0  0  0  0  0  0  0  0
   -1.4874    4.3786    0.0000 C   0  0  0  0  0  0  0  0  0  0  0  0
   -2.4911    5.4933    0.0000 N   0  0  0  0  0  0  0  0  0  0  0  0
   -3.9583    5.1814    0.0000 C   0  0  0  0  0  0  0  0  0  0  0  0
   -4.9620    6.2961    0.0000 N   0  0  0  0  0  0  0  0  0  0  0  0
   -4.4218    3.7548    0.0000 N   0  0  0  0  0  0  0  0  0  0  0  0
   -0.7500    1.2990    0.0000 C   0  0  0  0  0  0  0  0  0  0  0  0
    0.7500    1.2990    0.0000 C   0  0  0  0  0  0  0  0  0  0  0  0
  1  2  1  0
  2  3  1  0
  3  4  1  0
  4  5  1  0
  5  6  1  0
  6  7  1  0
  7  8  2  0
  8  9  1  0
  9 10  1  0
 10 11  2  0
 11 12  1  0
 12 13  2  0
 13 14  1  0
 13 15  1  0
 15 16  2  0
  9 17  2  0
 17 18  1  0
 18 19  2  0
 19 20  1  0
 20 21  2  0
 21 22  1  0
 22 23  1  0
 22 24  2  0
  5 25  1  0
 25 26  1  0
 26  2  1  0
 17  6  1  0
 24 18  1  0
 16 10  1  0
M  END
>  <Compound_ID>  (659) 
CHEMBL95207

>  <Molecule Name>  (659) 
nan

>  <Molecular Weight>  (659) 
352.42

>  <AlogP>  (659) 
3.0

>  <Smiles>  (659) 
CN1CCC(n2cnc(-c3ccc(F)cc3)c2-c2ccnc(N)n2)CC1

>  <Standard Type>  (659) 
Inhibition

>  <Standard Relation>  (659) 
'='

>  <Standard Units>  (659) 
%

>  <Standard Value>  (659) 
3.59

>  <Assay ChEMBL ID>  (659) 
CHEMBL1962185

>  <Assay Description>  (659) 
GSK_PKIS: TRKA mean inhibition at 1 uM [Nanosyn]

>  <BAO Format ID>  (659) 
BAO_0000357

>  <BAO Label>  (659) 
single protein format

>  <Assay Organism>  (659) 
None

>  <Target ChEMBL ID>  (659) 
CHEMBL2815

>  <Target Name>  (659) 
Nerve growth factor receptor Trk-A

>  <Target Organism>  (659) 
Homo sapiens

>  <Target Type>  (659) 
SINGLE PROTEIN

>  <Document ChEMBL ID>  (659) 
CHEMBL1961873

>  <Source Description>  (659) 
GSK Published Kinase Inhibitor Set

>  <Document Journal>  (659) 
nan

>  <Document Year>  (659) 
nan

>  <Active>  (659) 
0.0

>  <bits>  (659) 
<rdkit.DataStructs.cDataStructs.ExplicitBitVect object at 0x00000159F540F530>

>  <Group>  (659) 
G2

$$$$

     RDKit          2D

 28 30  0  0  0  0  0  0  0  0999 V2000
    3.7500   -1.2990    0.0000 C   0  0  0  0  0  0  0  0  0  0  0  0
    3.0000    0.0000    0.0000 O   0  0  0  0  0  0  0  0  0  0  0  0
    1.5000    0.0000    0.0000 C   0  0  0  0  0  0  0  0  0  0  0  0
    0.7500   -1.2990    0.0000 C   0  0  0  0  0  0  0  0  0  0  0  0
    1.5000   -2.5981    0.0000 C   0  0  0  0  0  0  0  0  0  0  0  0
    0.7500   -3.8971    0.0000 N   0  0  0  0  0  0  0  0  0  0  0  0
    3.0000   -2.5981    0.0000 O   0  0  0  0  0  0  0  0  0  0  0  0
   -0.7500   -1.2990    0.0000 C   0  0  0  0  0  0  0  0  0  0  0  0
   -1.5000    0.0000    0.0000 C   0  0  0  0  0  0  0  0  0  0  0  0
   -3.0000    0.0000    0.0000 C   0  0  0  0  0  0  0  0  0  0  0  0
   -3.7500    1.2990    0.0000 C   0  0  0  0  0  0  0  0  0  0  0  0
   -5.2500    1.2990    0.0000 C   0  0  0  0  0  0  0  0  0  0  0  0
   -6.0000    0.0000    0.0000 C   0  0  0  0  0  0  0  0  0  0  0  0
   -7.5000    0.0000    0.0000 Cl  0  0  0  0  0  0  0  0  0  0  0  0
   -5.2500   -1.2990    0.0000 C   0  0  0  0  0  0  0  0  0  0  0  0
   -3.7500   -1.2990    0.0000 C   0  0  0  0  0  0  0  0  0  0  0  0
   -0.7500    1.2990    0.0000 C   0  0  0  0  0  0  0  0  0  0  0  0
    0.7500    1.2990    0.0000 C   0  0  0  0  0  0  0  0  0  0  0  0
    1.5000    2.5981    0.0000 C   0  0  0  0  0  0  0  0  0  0  0  0
    3.0000    2.5981    0.0000 C   0  0  0  0  0  0  0  0  0  0  0  0
    3.7500    3.8971    0.0000 C   0  0  0  0  0  0  0  0  0  0  0  0
    3.0000    5.1962    0.0000 C   0  0  0  0  0  0  0  0  0  0  0  0
    3.7500    6.4952    0.0000 S   0  0  0  0  0  0  0  0  0  0  0  0
    4.5000    7.7942    0.0000 N   0  0  0  0  0  0  0  0  0  0  0  0
    5.0490    5.7452    0.0000 O   0  0  0  0  0  0  0  0  0  0  0  0
    2.4510    7.2452    0.0000 O   0  0  0  0  0  0  0  0  0  0  0  0
    1.5000    5.1962    0.0000 C   0  0  0  0  0  0  0  0  0  0  0  0
    0.7500    3.8971    0.0000 C   0  0  0  0  0  0  0  0  0  0  0  0
  1  2  1  0
  2  3  1  0
  3  4  2  0
  4  5  1  0
  5  6  1  0
  5  7  2  0
  4  8  1  0
  8  9  2  0
  9 10  1  0
 10 11  2  0
 11 12  1  0
 12 13  2  0
 13 14  1  0
 13 15  1  0
 15 16  2  0
  9 17  1  0
 17 18  2  0
 18 19  1  0
 19 20  2  0
 20 21  1  0
 21 22  2  0
 22 23  1  0
 23 24  1  0
 23 25  2  0
 23 26  2  0
 22 27  1  0
 27 28  2  0
 18  3  1  0
 28 19  1  0
 16 10  1  0
M  END
>  <Compound_ID>  (660) 
CHEMBL268885

>  <Molecule Name>  (660) 
GSK-711701A

>  <Molecular Weight>  (660) 
416.89

>  <AlogP>  (660) 
3.43

>  <Smiles>  (660) 
COc1c(C(N)=O)cc(-c2ccc(Cl)cc2)cc1-c1ccc(S(N)(=O)=O)cc1

>  <Standard Type>  (660) 
Inhibition

>  <Standard Relation>  (660) 
'='

>  <Standard Units>  (660) 
%

>  <Standard Value>  (660) 
4.76

>  <Assay ChEMBL ID>  (660) 
CHEMBL1962184

>  <Assay Description>  (660) 
GSK_PKIS: TRKA mean inhibition at 0.1 uM [Nanosyn]

>  <BAO Format ID>  (660) 
BAO_0000357

>  <BAO Label>  (660) 
single protein format

>  <Assay Organism>  (660) 
None

>  <Target ChEMBL ID>  (660) 
CHEMBL2815

>  <Target Name>  (660) 
Nerve growth factor receptor Trk-A

>  <Target Organism>  (660) 
Homo sapiens

>  <Target Type>  (660) 
SINGLE PROTEIN

>  <Document ChEMBL ID>  (660) 
CHEMBL1961873

>  <Source Description>  (660) 
GSK Published Kinase Inhibitor Set

>  <Document Journal>  (660) 
nan

>  <Document Year>  (660) 
nan

>  <Active>  (660) 
0.0

>  <bits>  (660) 
<rdkit.DataStructs.cDataStructs.ExplicitBitVect object at 0x00000159F540DEE0>

>  <Group>  (660) 
G2

$$$$

     RDKit          2D

 22 25  0  0  0  0  0  0  0  0999 V2000
    0.0000   -9.6073    0.0000 F   0  0  0  0  0  0  0  0  0  0  0  0
    0.0000   -8.1073    0.0000 C   0  0  0  0  0  0  0  0  0  0  0  0
   -1.2990   -7.3573    0.0000 C   0  0  0  0  0  0  0  0  0  0  0  0
   -1.2990   -5.8573    0.0000 C   0  0  0  0  0  0  0  0  0  0  0  0
   -0.0000   -5.1073    0.0000 C   0  0  0  0  0  0  0  0  0  0  0  0
   -0.0000   -3.6073    0.0000 C   0  0  0  0  0  0  0  0  0  0  0  0
    1.2135   -2.7256    0.0000 N   0  0  0  0  0  0  0  0  0  0  0  0
    0.7500   -1.2990    0.0000 N   0  0  0  0  0  0  0  0  0  0  0  0
    1.5000    0.0000    0.0000 C   0  0  0  0  0  0  0  0  0  0  0  0
    0.7500    1.2990    0.0000 C   0  0  0  0  0  0  0  0  0  0  0  0
   -0.7500    1.2990    0.0000 C   0  0  0  0  0  0  0  0  0  0  0  0
   -1.5000    0.0000    0.0000 C   0  0  0  0  0  0  0  0  0  0  0  0
   -0.7500   -1.2990    0.0000 C   0  0  0  0  0  0  0  0  0  0  0  0
   -1.2135   -2.7256    0.0000 C   0  0  0  0  0  0  0  0  0  0  0  0
   -2.6401   -3.1891    0.0000 C   0  0  0  0  0  0  0  0  0  0  0  0
   -3.7548   -2.1855    0.0000 C   0  0  0  0  0  0  0  0  0  0  0  0
   -5.1814   -2.6490    0.0000 C   0  0  0  0  0  0  0  0  0  0  0  0
   -5.4933   -4.1162    0.0000 N   0  0  0  0  0  0  0  0  0  0  0  0
   -4.3786   -5.1199    0.0000 C   0  0  0  0  0  0  0  0  0  0  0  0
   -2.9520   -4.6564    0.0000 C   0  0  0  0  0  0  0  0  0  0  0  0
    1.2990   -5.8573    0.0000 C   0  0  0  0  0  0  0  0  0  0  0  0
    1.2990   -7.3573    0.0000 C   0  0  0  0  0  0  0  0  0  0  0  0
  1  2  1  0
  2  3  2  0
  3  4  1  0
  4  5  2  0
  5  6  1  0
  6  7  2  0
  7  8  1  0
  8  9  1  0
  9 10  2  0
 10 11  1  0
 11 12  2  0
 12 13  1  0
 13 14  2  0
 14 15  1  0
 15 16  2  0
 16 17  1  0
 17 18  2  0
 18 19  1  0
 19 20  2  0
  5 21  1  0
 21 22  2  0
 22  2  1  0
 14  6  1  0
 20 15  1  0
 13  8  1  0
M  END
>  <Compound_ID>  (661) 
CHEMBL485745

>  <Molecule Name>  (661) 
GW434756X

>  <Molecular Weight>  (661) 
289.31

>  <AlogP>  (661) 
4.2

>  <Smiles>  (661) 
Fc1ccc(-c2nn3ccccc3c2-c2ccncc2)cc1

>  <Standard Type>  (661) 
Inhibition

>  <Standard Relation>  (661) 
'='

>  <Standard Units>  (661) 
%

>  <Standard Value>  (661) 
0.45

>  <Assay ChEMBL ID>  (661) 
CHEMBL1962185

>  <Assay Description>  (661) 
GSK_PKIS: TRKA mean inhibition at 1 uM [Nanosyn]

>  <BAO Format ID>  (661) 
BAO_0000357

>  <BAO Label>  (661) 
single protein format

>  <Assay Organism>  (661) 
None

>  <Target ChEMBL ID>  (661) 
CHEMBL2815

>  <Target Name>  (661) 
Nerve growth factor receptor Trk-A

>  <Target Organism>  (661) 
Homo sapiens

>  <Target Type>  (661) 
SINGLE PROTEIN

>  <Document ChEMBL ID>  (661) 
CHEMBL1961873

>  <Source Description>  (661) 
GSK Published Kinase Inhibitor Set

>  <Document Journal>  (661) 
nan

>  <Document Year>  (661) 
nan

>  <Active>  (661) 
0.0

>  <bits>  (661) 
<rdkit.DataStructs.cDataStructs.ExplicitBitVect object at 0x00000159F540E570>

>  <Group>  (661) 
G2

$$$$

     RDKit          2D

 25 28  0  0  0  0  0  0  0  0999 V2000
    1.8478   -6.4639    0.0000 C   0  0  0  0  0  0  0  0  0  0  0  0
    2.0046   -4.9721    0.0000 C   0  0  0  0  0  0  0  0  0  0  0  0
    3.3037   -4.2221    0.0000 N   0  0  0  0  0  0  0  0  0  0  0  0
    2.9918   -2.7549    0.0000 N   0  0  0  0  0  0  0  0  0  0  0  0
    1.5000   -2.5981    0.0000 C   0  0  0  0  0  0  0  0  0  0  0  0
    0.7500   -1.2990    0.0000 C   0  0  0  0  0  0  0  0  0  0  0  0
    1.5000    0.0000    0.0000 C   0  0  0  0  0  0  0  0  0  0  0  0
    0.7500    1.2990    0.0000 C   0  0  0  0  0  0  0  0  0  0  0  0
   -0.7500    1.2990    0.0000 C   0  0  0  0  0  0  0  0  0  0  0  0
   -1.5000    0.0000    0.0000 C   0  0  0  0  0  0  0  0  0  0  0  0
   -3.0000    0.0000    0.0000 C   0  0  0  0  0  0  0  0  0  0  0  0
   -3.7500    1.2990    0.0000 C   0  0  0  0  0  0  0  0  0  0  0  0
   -5.2500    1.2990    0.0000 C   0  0  0  0  0  0  0  0  0  0  0  0
   -6.0000    0.0000    0.0000 C   0  0  0  0  0  0  0  0  0  0  0  0
   -7.5000    0.0000    0.0000 C   0  0  0  0  0  0  0  0  0  0  0  0
   -8.2500   -1.2990    0.0000 O   0  0  0  0  0  0  0  0  0  0  0  0
   -8.2500    1.2990    0.0000 N   0  0  0  0  0  0  0  0  0  0  0  0
   -9.7500    1.2990    0.0000 C   0  0  0  0  0  0  0  0  0  0  0  0
  -10.5000    2.5981    0.0000 C   0  0  0  0  0  0  0  0  0  0  0  0
  -11.7990    3.3481    0.0000 C   0  0  0  0  0  0  0  0  0  0  0  0
  -10.5000    4.0981    0.0000 C   0  0  0  0  0  0  0  0  0  0  0  0
   -5.2500   -1.2990    0.0000 C   0  0  0  0  0  0  0  0  0  0  0  0
   -3.7500   -1.2990    0.0000 C   0  0  0  0  0  0  0  0  0  0  0  0
   -0.7500   -1.2990    0.0000 C   0  0  0  0  0  0  0  0  0  0  0  0
    0.8899   -3.9684    0.0000 O   0  0  0  0  0  0  0  0  0  0  0  0
  1  2  1  0
  2  3  2  0
  3  4  1  0
  4  5  2  0
  5  6  1  0
  6  7  2  0
  7  8  1  0
  8  9  2  0
  9 10  1  0
 10 11  1  0
 11 12  2  0
 12 13  1  0
 13 14  2  0
 14 15  1  0
 15 16  2  0
 15 17  1  0
 17 18  1  0
 18 19  1  0
 19 20  1  0
 20 21  1  0
 14 22  1  0
 22 23  2  0
 10 24  2  0
  5 25  1  0
 25  2  1  0
 24  6  1  0
 23 11  1  0
 21 19  1  0
M  END
>  <Compound_ID>  (662) 
CHEMBL257113

>  <Molecule Name>  (662) 
GW734508X

>  <Molecular Weight>  (662) 
333.39

>  <AlogP>  (662) 
3.85

>  <Smiles>  (662) 
Cc1nnc(-c2cccc(-c3ccc(C(=O)NCC4CC4)cc3)c2)o1

>  <Standard Type>  (662) 
Inhibition

>  <Standard Relation>  (662) 
'='

>  <Standard Units>  (662) 
%

>  <Standard Value>  (662) 
1.38

>  <Assay ChEMBL ID>  (662) 
CHEMBL1962185

>  <Assay Description>  (662) 
GSK_PKIS: TRKA mean inhibition at 1 uM [Nanosyn]

>  <BAO Format ID>  (662) 
BAO_0000357

>  <BAO Label>  (662) 
single protein format

>  <Assay Organism>  (662) 
None

>  <Target ChEMBL ID>  (662) 
CHEMBL2815

>  <Target Name>  (662) 
Nerve growth factor receptor Trk-A

>  <Target Organism>  (662) 
Homo sapiens

>  <Target Type>  (662) 
SINGLE PROTEIN

>  <Document ChEMBL ID>  (662) 
CHEMBL1961873

>  <Source Description>  (662) 
GSK Published Kinase Inhibitor Set

>  <Document Journal>  (662) 
nan

>  <Document Year>  (662) 
nan

>  <Active>  (662) 
0.0

>  <bits>  (662) 
<rdkit.DataStructs.cDataStructs.ExplicitBitVect object at 0x00000159F540F4C0>

>  <Group>  (662) 
G2

$$$$

     RDKit          2D

 28 31  0  0  0  0  0  0  0  0999 V2000
    3.0000    0.0000    0.0000 N   0  0  0  0  0  0  0  0  0  0  0  0
    1.5000    0.0000    0.0000 C   0  0  0  0  0  0  0  0  0  0  0  0
    0.7500   -1.2990    0.0000 N   0  0  0  0  0  0  0  0  0  0  0  0
   -0.7500   -1.2990    0.0000 C   0  0  0  0  0  0  0  0  0  0  0  0
   -1.5000   -2.5981    0.0000 N   0  0  0  0  0  0  0  0  0  0  0  0
   -3.0000   -2.5981    0.0000 C   0  0  0  0  0  0  0  0  0  0  0  0
   -3.7500   -3.8971    0.0000 C   0  0  0  0  0  0  0  0  0  0  0  0
   -3.0000   -5.1962    0.0000 O   0  0  0  0  0  0  0  0  0  0  0  0
   -1.5000   -5.1962    0.0000 C   0  0  0  0  0  0  0  0  0  0  0  0
   -0.7500   -3.8971    0.0000 C   0  0  0  0  0  0  0  0  0  0  0  0
   -1.5000    0.0000    0.0000 C   0  0  0  0  0  0  0  0  0  0  0  0
   -0.7500    1.2990    0.0000 C   0  0  0  0  0  0  0  0  0  0  0  0
   -1.5000    2.5981    0.0000 N   0  0  0  0  0  0  0  0  0  0  0  0
   -0.7500    3.8971    0.0000 C   0  0  0  0  0  0  0  0  0  0  0  0
   -1.5000    5.1962    0.0000 C   0  0  0  0  0  0  0  0  0  0  0  0
   -3.0000    5.1962    0.0000 C   0  0  0  0  0  0  0  0  0  0  0  0
   -3.7500    6.4952    0.0000 C   0  0  0  0  0  0  0  0  0  0  0  0
   -5.2500    6.4952    0.0000 O   0  0  0  0  0  0  0  0  0  0  0  0
   -3.0000    7.7942    0.0000 N   0  0  0  0  0  0  0  0  0  0  0  0
   -3.7500    9.0933    0.0000 C   0  0  0  0  0  0  0  0  0  0  0  0
   -3.0000   10.3923    0.0000 C   0  0  0  0  0  0  0  0  0  0  0  0
   -3.6101   11.7626    0.0000 C   0  0  0  0  0  0  0  0  0  0  0  0
   -2.4954   12.7663    0.0000 C   0  0  0  0  0  0  0  0  0  0  0  0
   -1.1963   12.0163    0.0000 C   0  0  0  0  0  0  0  0  0  0  0  0
   -1.5082   10.5491    0.0000 S   0  0  0  0  0  0  0  0  0  0  0  0
   -3.7500    3.8971    0.0000 C   0  0  0  0  0  0  0  0  0  0  0  0
   -3.0000    2.5981    0.0000 C   0  0  0  0  0  0  0  0  0  0  0  0
    0.7500    1.2990    0.0000 N   0  0  0  0  0  0  0  0  0  0  0  0
  1  2  1  0
  2  3  2  0
  3  4  1  0
  4  5  1  0
  5  6  1  0
  6  7  1  0
  7  8  1  0
  8  9  1  0
  9 10  1  0
  4 11  2  0
 11 12  1  0
 12 13  1  0
 13 14  1  0
 14 15  1  0
 15 16  1  0
 16 17  1  0
 17 18  2  0
 17 19  1  0
 19 20  1  0
 20 21  1  0
 21 22  2  0
 22 23  1  0
 23 24  2  0
 24 25  1  0
 16 26  1  0
 26 27  1  0
 12 28  2  0
 28  2  1  0
 10  5  1  0
 27 13  1  0
 25 21  1  0
M  END
>  <Compound_ID>  (663) 
CHEMBL482910

>  <Molecule Name>  (663) 
nan

>  <Molecular Weight>  (663) 
402.52

>  <AlogP>  (663) 
1.49

>  <Smiles>  (663) 
Nc1nc(N2CCOCC2)cc(N2CCC(C(=O)NCc3cccs3)CC2)n1

>  <Standard Type>  (663) 
Inhibition

>  <Standard Relation>  (663) 
'='

>  <Standard Units>  (663) 
%

>  <Standard Value>  (663) 
9.0

>  <Assay ChEMBL ID>  (663) 
CHEMBL965679

>  <Assay Description>  (663) 
Inhibition of TrkA at 10 uM by HTRF assay relative to control

>  <BAO Format ID>  (663) 
BAO_0000357

>  <BAO Label>  (663) 
single protein format

>  <Assay Organism>  (663) 
None

>  <Target ChEMBL ID>  (663) 
CHEMBL2815

>  <Target Name>  (663) 
Nerve growth factor receptor Trk-A

>  <Target Organism>  (663) 
Homo sapiens

>  <Target Type>  (663) 
SINGLE PROTEIN

>  <Document ChEMBL ID>  (663) 
CHEMBL1150387

>  <Source Description>  (663) 
Scientific Literature

>  <Document Journal>  (663) 
J Med Chem

>  <Document Year>  (663) 
2008.0

>  <Active>  (663) 
0.0

>  <bits>  (663) 
<rdkit.DataStructs.cDataStructs.ExplicitBitVect object at 0x00000159F540F6F0>

>  <Group>  (663) 
G2

$$$$

     RDKit          2D

 25 27  0  0  0  0  0  0  0  0999 V2000
    3.0000    0.0000    0.0000 C   0  0  0  0  0  0  0  0  0  0  0  0
    1.5000    0.0000    0.0000 C   0  0  0  0  0  0  0  0  0  0  0  0
    0.7500   -1.2990    0.0000 C   0  0  0  0  0  0  0  0  0  0  0  0
   -0.7500   -1.2990    0.0000 C   0  0  0  0  0  0  0  0  0  0  0  0
   -1.5000    0.0000    0.0000 C   0  0  0  0  0  0  0  0  0  0  0  0
   -3.0000    0.0000    0.0000 N   0  0  0  0  0  0  0  0  0  0  0  0
   -3.7500    1.2990    0.0000 C   0  0  0  0  0  0  0  0  0  0  0  0
   -3.0000    2.5981    0.0000 C   0  0  0  0  0  0  0  0  0  0  0  0
   -3.7500    3.8971    0.0000 C   0  0  0  0  0  0  0  0  0  0  0  0
   -5.2500    3.8971    0.0000 N   0  0  0  0  0  0  0  0  0  0  0  0
   -6.0000    2.5981    0.0000 C   0  0  0  0  0  0  0  0  0  0  0  0
   -7.5000    2.5981    0.0000 N   0  0  0  0  0  0  0  0  0  0  0  0
   -8.2500    3.8971    0.0000 C   0  0  0  0  0  0  0  0  0  0  0  0
   -7.5000    5.1962    0.0000 C   0  0  0  0  0  0  0  0  0  0  0  0
   -8.2500    6.4952    0.0000 C   0  0  0  0  0  0  0  0  0  0  0  0
   -9.7500    6.4952    0.0000 C   0  0  0  0  0  0  0  0  0  0  0  0
  -10.5000    5.1962    0.0000 C   0  0  0  0  0  0  0  0  0  0  0  0
  -12.0000    5.1962    0.0000 C   0  0  0  0  0  0  0  0  0  0  0  0
  -12.7500    6.4952    0.0000 N   0  0  0  0  0  0  0  0  0  0  0  0
  -12.7500    3.8971    0.0000 O   0  0  0  0  0  0  0  0  0  0  0  0
   -9.7500    3.8971    0.0000 C   0  0  0  0  0  0  0  0  0  0  0  0
   -5.2500    1.2990    0.0000 N   0  0  0  0  0  0  0  0  0  0  0  0
   -0.7500    1.2990    0.0000 C   0  0  0  0  0  0  0  0  0  0  0  0
    0.7500    1.2990    0.0000 C   0  0  0  0  0  0  0  0  0  0  0  0
    1.5000    2.5981    0.0000 O   0  0  0  0  0  0  0  0  0  0  0  0
  1  2  1  0
  2  3  2  0
  3  4  1  0
  4  5  2  0
  5  6  1  0
  6  7  1  0
  7  8  2  0
  8  9  1  0
  9 10  2  0
 10 11  1  0
 11 12  1  0
 12 13  1  0
 13 14  2  0
 14 15  1  0
 15 16  2  0
 16 17  1  0
 17 18  1  0
 18 19  1  0
 18 20  2  0
 17 21  2  0
 11 22  2  0
  5 23  1  0
 23 24  2  0
 24 25  1  0
 24  2  1  0
 22  7  1  0
 21 13  1  0
M  END
>  <Compound_ID>  (664) 
CHEMBL1909381

>  <Molecule Name>  (664) 
GW575808A

>  <Molecular Weight>  (664) 
371.83

>  <AlogP>  (664) 
3.08

>  <Smiles>  (664) 
Cc1ccc(Nc2ccnc(Nc3cccc(C(N)=O)c3)n2)cc1O

>  <Standard Type>  (664) 
Inhibition

>  <Standard Relation>  (664) 
'='

>  <Standard Units>  (664) 
%

>  <Standard Value>  (664) 
6.07

>  <Assay ChEMBL ID>  (664) 
CHEMBL1962185

>  <Assay Description>  (664) 
GSK_PKIS: TRKA mean inhibition at 1 uM [Nanosyn]

>  <BAO Format ID>  (664) 
BAO_0000357

>  <BAO Label>  (664) 
single protein format

>  <Assay Organism>  (664) 
None

>  <Target ChEMBL ID>  (664) 
CHEMBL2815

>  <Target Name>  (664) 
Nerve growth factor receptor Trk-A

>  <Target Organism>  (664) 
Homo sapiens

>  <Target Type>  (664) 
SINGLE PROTEIN

>  <Document ChEMBL ID>  (664) 
CHEMBL1961873

>  <Source Description>  (664) 
GSK Published Kinase Inhibitor Set

>  <Document Journal>  (664) 
nan

>  <Document Year>  (664) 
nan

>  <Active>  (664) 
0.0

>  <bits>  (664) 
<rdkit.DataStructs.cDataStructs.ExplicitBitVect object at 0x00000159F540F140>

>  <Group>  (664) 
G2

$$$$

     RDKit          2D

 29 33  0  0  0  0  0  0  0  0999 V2000
    0.0000   -9.6073    0.0000 Cl  0  0  0  0  0  0  0  0  0  0  0  0
    0.0000   -8.1073    0.0000 C   0  0  0  0  0  0  0  0  0  0  0  0
   -1.2990   -7.3573    0.0000 C   0  0  0  0  0  0  0  0  0  0  0  0
   -1.2990   -5.8573    0.0000 C   0  0  0  0  0  0  0  0  0  0  0  0
   -0.0000   -5.1073    0.0000 C   0  0  0  0  0  0  0  0  0  0  0  0
   -0.0000   -3.6073    0.0000 C   0  0  0  0  0  0  0  0  0  0  0  0
    1.2135   -2.7256    0.0000 N   0  0  0  0  0  0  0  0  0  0  0  0
    0.7500   -1.2990    0.0000 N   0  0  0  0  0  0  0  0  0  0  0  0
    1.5000    0.0000    0.0000 N   0  0  0  0  0  0  0  0  0  0  0  0
    0.7500    1.2990    0.0000 C   0  0  0  0  0  0  0  0  0  0  0  0
   -0.7500    1.2990    0.0000 C   0  0  0  0  0  0  0  0  0  0  0  0
   -1.5000    0.0000    0.0000 C   0  0  0  0  0  0  0  0  0  0  0  0
   -0.7500   -1.2990    0.0000 C   0  0  0  0  0  0  0  0  0  0  0  0
   -1.2135   -2.7256    0.0000 C   0  0  0  0  0  0  0  0  0  0  0  0
   -2.6401   -3.1891    0.0000 C   0  0  0  0  0  0  0  0  0  0  0  0
   -3.7548   -2.1855    0.0000 C   0  0  0  0  0  0  0  0  0  0  0  0
   -5.1814   -2.6490    0.0000 C   0  0  0  0  0  0  0  0  0  0  0  0
   -5.4933   -4.1162    0.0000 N   0  0  0  0  0  0  0  0  0  0  0  0
   -4.3786   -5.1199    0.0000 C   0  0  0  0  0  0  0  0  0  0  0  0
   -4.6904   -6.5871    0.0000 N   0  0  0  0  0  0  0  0  0  0  0  0
   -6.1170   -7.0506    0.0000 C   0  0  0  0  0  0  0  0  0  0  0  0
   -7.2317   -6.0469    0.0000 C   0  0  0  0  0  0  0  0  0  0  0  0
   -8.6583   -6.5105    0.0000 C   0  0  0  0  0  0  0  0  0  0  0  0
   -8.9702   -7.9777    0.0000 C   0  0  0  0  0  0  0  0  0  0  0  0
   -7.8555   -8.9814    0.0000 C   0  0  0  0  0  0  0  0  0  0  0  0
   -6.4289   -8.5179    0.0000 C   0  0  0  0  0  0  0  0  0  0  0  0
   -2.9520   -4.6564    0.0000 N   0  0  0  0  0  0  0  0  0  0  0  0
    1.2990   -5.8573    0.0000 C   0  0  0  0  0  0  0  0  0  0  0  0
    1.2990   -7.3573    0.0000 C   0  0  0  0  0  0  0  0  0  0  0  0
  1  2  1  0
  2  3  2  0
  3  4  1  0
  4  5  2  0
  5  6  1  0
  6  7  2  0
  7  8  1  0
  8  9  1  0
  9 10  2  0
 10 11  1  0
 11 12  2  0
 12 13  1  0
 13 14  2  0
 14 15  1  0
 15 16  2  0
 16 17  1  0
 17 18  2  0
 18 19  1  0
 19 20  1  0
 20 21  1  0
 21 22  2  0
 22 23  1  0
 23 24  2  0
 24 25  1  0
 25 26  2  0
 19 27  2  0
  5 28  1  0
 28 29  2  0
 29  2  1  0
 14  6  1  0
 27 15  1  0
 13  8  1  0
 26 21  1  0
M  END
>  <Compound_ID>  (665) 
CHEMBL189148

>  <Molecule Name>  (665) 
GW829055X

>  <Molecular Weight>  (665) 
398.86

>  <AlogP>  (665) 
5.25

>  <Smiles>  (665) 
Clc1ccc(-c2nn3ncccc3c2-c2ccnc(Nc3ccccc3)n2)cc1

>  <Standard Type>  (665) 
Inhibition

>  <Standard Relation>  (665) 
'='

>  <Standard Units>  (665) 
%

>  <Standard Value>  (665) 
3.46

>  <Assay ChEMBL ID>  (665) 
CHEMBL1962184

>  <Assay Description>  (665) 
GSK_PKIS: TRKA mean inhibition at 0.1 uM [Nanosyn]

>  <BAO Format ID>  (665) 
BAO_0000357

>  <BAO Label>  (665) 
single protein format

>  <Assay Organism>  (665) 
None

>  <Target ChEMBL ID>  (665) 
CHEMBL2815

>  <Target Name>  (665) 
Nerve growth factor receptor Trk-A

>  <Target Organism>  (665) 
Homo sapiens

>  <Target Type>  (665) 
SINGLE PROTEIN

>  <Document ChEMBL ID>  (665) 
CHEMBL1961873

>  <Source Description>  (665) 
GSK Published Kinase Inhibitor Set

>  <Document Journal>  (665) 
nan

>  <Document Year>  (665) 
nan

>  <Active>  (665) 
0.0

>  <bits>  (665) 
<rdkit.DataStructs.cDataStructs.ExplicitBitVect object at 0x00000159F540DD20>

>  <Group>  (665) 
G2

$$$$

     RDKit          2D

 38 42  0  0  0  0  0  0  0  0999 V2000
   -6.2940    7.2357    0.0000 C   0  0  0  0  0  0  0  0  0  0  0  0
   -5.1793    6.2320    0.0000 O   0  0  0  0  0  0  0  0  0  0  0  0
   -3.7527    6.6955    0.0000 C   0  0  0  0  0  0  0  0  0  0  0  0
   -3.4408    8.1628    0.0000 C   0  0  0  0  0  0  0  0  0  0  0  0
   -2.0143    8.6263    0.0000 C   0  0  0  0  0  0  0  0  0  0  0  0
   -1.7024   10.0935    0.0000 N   0  0  0  0  0  0  0  0  0  0  0  0
   -0.2758   10.5570    0.0000 C   0  0  0  0  0  0  0  0  0  0  0  0
    0.0361   12.0242    0.0000 C   0  0  0  0  0  0  0  0  0  0  0  0
   -1.0786   13.0279    0.0000 N   0  0  0  0  0  0  0  0  0  0  0  0
   -0.7668   14.4952    0.0000 C   0  0  0  0  0  0  0  0  0  0  0  0
    0.6598   14.9587    0.0000 C   0  0  0  0  0  0  0  0  0  0  0  0
   -1.8815   15.4989    0.0000 C   0  0  0  0  0  0  0  0  0  0  0  0
   -2.5052   12.5644    0.0000 C   0  0  0  0  0  0  0  0  0  0  0  0
   -2.8171   11.0972    0.0000 C   0  0  0  0  0  0  0  0  0  0  0  0
   -0.8995    7.6226    0.0000 C   0  0  0  0  0  0  0  0  0  0  0  0
   -1.2114    6.1554    0.0000 C   0  0  0  0  0  0  0  0  0  0  0  0
   -2.6380    5.6918    0.0000 C   0  0  0  0  0  0  0  0  0  0  0  0
   -2.9499    4.2246    0.0000 N   0  0  0  0  0  0  0  0  0  0  0  0
   -1.8351    3.2209    0.0000 C   0  0  0  0  0  0  0  0  0  0  0  0
   -0.4086    3.6844    0.0000 N   0  0  0  0  0  0  0  0  0  0  0  0
    0.7062    2.6807    0.0000 C   0  0  0  0  0  0  0  0  0  0  0  0
    2.1328    3.1443    0.0000 N   0  0  0  0  0  0  0  0  0  0  0  0
    2.4446    4.6115    0.0000 C   0  0  0  0  0  0  0  0  0  0  0  0
    1.3299    5.6152    0.0000 C   0  0  0  0  0  0  0  0  0  0  0  0
    1.6418    7.0824    0.0000 C   0  0  0  0  0  0  0  0  0  0  0  0
    3.0684    7.5459    0.0000 C   0  0  0  0  0  0  0  0  0  0  0  0
    4.1831    6.5422    0.0000 C   0  0  0  0  0  0  0  0  0  0  0  0
    5.6097    7.0058    0.0000 F   0  0  0  0  0  0  0  0  0  0  0  0
    3.8712    5.0750    0.0000 C   0  0  0  0  0  0  0  0  0  0  0  0
    4.9859    4.0713    0.0000 C   0  0  0  0  0  0  0  0  0  0  0  0
    4.6741    2.6041    0.0000 O   0  0  0  0  0  0  0  0  0  0  0  0
    6.4125    4.5348    0.0000 O   0  0  0  0  0  0  0  0  0  0  0  0
    0.3943    1.2135    0.0000 C   0  0  0  0  0  0  0  0  0  0  0  0
    1.2760    0.0000    0.0000 C   0  0  0  0  0  0  0  0  0  0  0  0
    0.3943   -1.2135    0.0000 C   0  0  0  0  0  0  0  0  0  0  0  0
   -1.0323   -0.7500    0.0000 N   0  0  0  0  0  0  0  0  0  0  0  0
   -1.0323    0.7500    0.0000 C   0  0  0  0  0  0  0  0  0  0  0  0
   -2.1470    1.7537    0.0000 N   0  0  0  0  0  0  0  0  0  0  0  0
  1  2  1  0
  2  3  1  0
  3  4  2  0
  4  5  1  0
  5  6  1  0
  6  7  1  0
  7  8  1  0
  8  9  1  0
  9 10  1  0
 10 11  1  0
 10 12  1  0
  9 13  1  0
 13 14  1  0
  5 15  2  0
 15 16  1  0
 16 17  2  0
 17 18  1  0
 18 19  1  0
 19 20  2  0
 20 21  1  0
 21 22  1  0
 22 23  1  0
 23 24  2  0
 24 25  1  0
 25 26  2  0
 26 27  1  0
 27 28  1  0
 27 29  2  0
 29 30  1  0
 30 31  2  0
 30 32  1  0
 21 33  2  0
 33 34  1  0
 34 35  2  0
 35 36  1  0
 36 37  1  0
 37 38  2  0
 17  3  1  0
 38 19  1  0
 14  6  1  0
 29 23  1  0
 37 33  1  0
M  END
>  <Compound_ID>  (666) 
CHEMBL514261

>  <Molecule Name>  (666) 
GSK-1819799A

>  <Molecular Weight>  (666) 
519.58

>  <AlogP>  (666) 
4.82

>  <Smiles>  (666) 
COc1cc(N2CCN(C(C)C)CC2)ccc1Nc1nc(Nc2cccc(F)c2C(=O)O)c2cc[nH]c2n1

>  <Standard Type>  (666) 
Inhibition

>  <Standard Relation>  (666) 
'='

>  <Standard Units>  (666) 
%

>  <Standard Value>  (666) 
4.69

>  <Assay ChEMBL ID>  (666) 
CHEMBL1962184

>  <Assay Description>  (666) 
GSK_PKIS: TRKA mean inhibition at 0.1 uM [Nanosyn]

>  <BAO Format ID>  (666) 
BAO_0000357

>  <BAO Label>  (666) 
single protein format

>  <Assay Organism>  (666) 
None

>  <Target ChEMBL ID>  (666) 
CHEMBL2815

>  <Target Name>  (666) 
Nerve growth factor receptor Trk-A

>  <Target Organism>  (666) 
Homo sapiens

>  <Target Type>  (666) 
SINGLE PROTEIN

>  <Document ChEMBL ID>  (666) 
CHEMBL1961873

>  <Source Description>  (666) 
GSK Published Kinase Inhibitor Set

>  <Document Journal>  (666) 
nan

>  <Document Year>  (666) 
nan

>  <Active>  (666) 
0.0

>  <bits>  (666) 
<rdkit.DataStructs.cDataStructs.ExplicitBitVect object at 0x00000159F540DF50>

>  <Group>  (666) 
G2

$$$$

     RDKit          2D

 29 32  0  0  0  0  0  0  0  0999 V2000
   -3.7548   -2.1855    0.0000 C   0  0  0  0  0  0  0  0  0  0  0  0
   -2.6401   -3.1891    0.0000 C   0  0  0  0  0  0  0  0  0  0  0  0
   -1.2135   -2.7256    0.0000 N   0  0  0  0  0  0  0  0  0  0  0  0
   -0.0000   -3.6073    0.0000 C   0  0  0  0  0  0  0  0  0  0  0  0
   -0.0000   -5.1073    0.0000 C   0  0  0  0  0  0  0  0  0  0  0  0
    1.2135   -5.9890    0.0000 N   0  0  0  0  0  0  0  0  0  0  0  0
    0.7500   -7.4156    0.0000 O   0  0  0  0  0  0  0  0  0  0  0  0
   -0.7500   -7.4156    0.0000 N   0  0  0  0  0  0  0  0  0  0  0  0
   -1.2135   -5.9890    0.0000 C   0  0  0  0  0  0  0  0  0  0  0  0
   -2.6401   -5.5255    0.0000 N   0  0  0  0  0  0  0  0  0  0  0  0
    1.2135   -2.7256    0.0000 N   0  0  0  0  0  0  0  0  0  0  0  0
    0.7500   -1.2990    0.0000 C   0  0  0  0  0  0  0  0  0  0  0  0
    1.5000    0.0000    0.0000 C   0  0  0  0  0  0  0  0  0  0  0  0
    3.0000    0.0000    0.0000 C   0  0  0  0  0  0  0  0  0  0  0  0
    4.5000    0.0000    0.0000 C   0  0  0  0  0  0  0  0  0  0  0  0
    6.0000    0.0000    0.0000 C   0  0  0  0  0  0  0  0  0  0  0  0
    6.0000   -1.5000    0.0000 C   0  0  0  0  0  0  0  0  0  0  0  0
    6.0000    1.5000    0.0000 C   0  0  0  0  0  0  0  0  0  0  0  0
    7.5000    0.0000    0.0000 O   0  0  0  0  0  0  0  0  0  0  0  0
    0.7500    1.2990    0.0000 N   0  0  0  0  0  0  0  0  0  0  0  0
   -0.7500    1.2990    0.0000 C   0  0  0  0  0  0  0  0  0  0  0  0
   -1.5000    2.5981    0.0000 C   0  0  0  0  0  0  0  0  0  0  0  0
   -0.7500    3.8971    0.0000 N   0  0  0  0  0  0  0  0  0  0  0  0
   -1.3601    5.2674    0.0000 C   0  0  0  0  0  0  0  0  0  0  0  0
   -0.2454    6.2711    0.0000 C   0  0  0  0  0  0  0  0  0  0  0  0
    1.0537    5.5211    0.0000 C   0  0  0  0  0  0  0  0  0  0  0  0
    0.7418    4.0539    0.0000 C   0  0  0  0  0  0  0  0  0  0  0  0
   -1.5000    0.0000    0.0000 C   0  0  0  0  0  0  0  0  0  0  0  0
   -0.7500   -1.2990    0.0000 C   0  0  0  0  0  0  0  0  0  0  0  0
  1  2  1  0
  2  3  1  0
  3  4  1  0
  4  5  1  0
  5  6  2  0
  6  7  1  0
  7  8  1  0
  8  9  2  0
  9 10  1  0
  4 11  2  0
 11 12  1  0
 12 13  2  0
 13 14  1  0
 14 15  3  0
 15 16  1  0
 16 17  1  0
 16 18  1  0
 16 19  1  0
 13 20  1  0
 20 21  2  0
 21 22  1  0
 22 23  1  0
 23 24  1  0
 24 25  1  0
 25 26  1  0
 26 27  1  0
 21 28  1  0
 28 29  2  0
 29  3  1  0
  9  5  1  0
 29 12  1  0
 27 23  1  0
M  END
>  <Compound_ID>  (667) 
CHEMBL1096290

>  <Molecule Name>  (667) 
GSK-1000163A

>  <Molecular Weight>  (667) 
395.47

>  <AlogP>  (667) 
1.8

>  <Smiles>  (667) 
CCn1c(-c2nonc2N)nc2c(C#CC(C)(C)O)nc(CN3CCCC3)cc21

>  <Standard Type>  (667) 
Inhibition

>  <Standard Relation>  (667) 
'='

>  <Standard Units>  (667) 
%

>  <Standard Value>  (667) 
-1.66

>  <Assay ChEMBL ID>  (667) 
CHEMBL1962185

>  <Assay Description>  (667) 
GSK_PKIS: TRKA mean inhibition at 1 uM [Nanosyn]

>  <BAO Format ID>  (667) 
BAO_0000357

>  <BAO Label>  (667) 
single protein format

>  <Assay Organism>  (667) 
None

>  <Target ChEMBL ID>  (667) 
CHEMBL2815

>  <Target Name>  (667) 
Nerve growth factor receptor Trk-A

>  <Target Organism>  (667) 
Homo sapiens

>  <Target Type>  (667) 
SINGLE PROTEIN

>  <Document ChEMBL ID>  (667) 
CHEMBL1961873

>  <Source Description>  (667) 
GSK Published Kinase Inhibitor Set

>  <Document Journal>  (667) 
nan

>  <Document Year>  (667) 
nan

>  <Active>  (667) 
0.0

>  <bits>  (667) 
<rdkit.DataStructs.cDataStructs.ExplicitBitVect object at 0x00000159F540FD10>

>  <Group>  (667) 
G2

$$$$

     RDKit          2D

 24 26  0  0  0  0  0  0  0  0999 V2000
    3.7500   -1.2990    0.0000 C   0  0  0  0  0  0  0  0  0  0  0  0
    3.0000    0.0000    0.0000 O   0  0  0  0  0  0  0  0  0  0  0  0
    1.5000    0.0000    0.0000 C   0  0  0  0  0  0  0  0  0  0  0  0
    0.7500   -1.2990    0.0000 C   0  0  0  0  0  0  0  0  0  0  0  0
   -0.7500   -1.2990    0.0000 C   0  0  0  0  0  0  0  0  0  0  0  0
   -1.5000   -2.5981    0.0000 N   0  0  0  0  0  0  0  0  0  0  0  0
   -3.0000   -2.5981    0.0000 C   0  0  0  0  0  0  0  0  0  0  0  0
   -3.8817   -3.8116    0.0000 N   0  0  0  0  0  0  0  0  0  0  0  0
   -5.3083   -3.3481    0.0000 C   0  0  0  0  0  0  0  0  0  0  0  0
   -5.3083   -1.8481    0.0000 C   0  0  0  0  0  0  0  0  0  0  0  0
   -6.5218   -0.9664    0.0000 C   0  0  0  0  0  0  0  0  0  0  0  0
   -6.3650    0.5254    0.0000 C   0  0  0  0  0  0  0  0  0  0  0  0
   -7.5785    1.4071    0.0000 C   0  0  0  0  0  0  0  0  0  0  0  0
   -8.9488    0.7970    0.0000 C   0  0  0  0  0  0  0  0  0  0  0  0
   -9.1056   -0.6948    0.0000 C   0  0  0  0  0  0  0  0  0  0  0  0
   -7.8921   -1.5765    0.0000 C   0  0  0  0  0  0  0  0  0  0  0  0
   -3.8817   -1.3846    0.0000 O   0  0  0  0  0  0  0  0  0  0  0  0
   -1.5000    0.0000    0.0000 C   0  0  0  0  0  0  0  0  0  0  0  0
   -0.7500    1.2990    0.0000 C   0  0  0  0  0  0  0  0  0  0  0  0
   -1.5000    2.5981    0.0000 O   0  0  0  0  0  0  0  0  0  0  0  0
   -0.7500    3.8971    0.0000 C   0  0  0  0  0  0  0  0  0  0  0  0
    0.7500    1.2990    0.0000 C   0  0  0  0  0  0  0  0  0  0  0  0
    1.5000    2.5981    0.0000 O   0  0  0  0  0  0  0  0  0  0  0  0
    3.0000    2.5981    0.0000 C   0  0  0  0  0  0  0  0  0  0  0  0
  1  2  1  0
  2  3  1  0
  3  4  2  0
  4  5  1  0
  5  6  1  0
  6  7  1  0
  7  8  2  0
  8  9  1  0
  9 10  2  0
 10 11  1  0
 11 12  2  0
 12 13  1  0
 13 14  2  0
 14 15  1  0
 15 16  2  0
 10 17  1  0
  5 18  2  0
 18 19  1  0
 19 20  1  0
 20 21  1  0
 19 22  2  0
 22 23  1  0
 23 24  1  0
 22  3  1  0
 17  7  1  0
 16 11  1  0
M  END
>  <Compound_ID>  (668) 
CHEMBL443563

>  <Molecule Name>  (668) 
GW627512B

>  <Molecular Weight>  (668) 
326.35

>  <AlogP>  (668) 
4.11

>  <Smiles>  (668) 
COc1cc(Nc2ncc(-c3ccccc3)o2)cc(OC)c1OC

>  <Standard Type>  (668) 
Inhibition

>  <Standard Relation>  (668) 
'='

>  <Standard Units>  (668) 
%

>  <Standard Value>  (668) 
3.35

>  <Assay ChEMBL ID>  (668) 
CHEMBL1962184

>  <Assay Description>  (668) 
GSK_PKIS: TRKA mean inhibition at 0.1 uM [Nanosyn]

>  <BAO Format ID>  (668) 
BAO_0000357

>  <BAO Label>  (668) 
single protein format

>  <Assay Organism>  (668) 
None

>  <Target ChEMBL ID>  (668) 
CHEMBL2815

>  <Target Name>  (668) 
Nerve growth factor receptor Trk-A

>  <Target Organism>  (668) 
Homo sapiens

>  <Target Type>  (668) 
SINGLE PROTEIN

>  <Document ChEMBL ID>  (668) 
CHEMBL1961873

>  <Source Description>  (668) 
GSK Published Kinase Inhibitor Set

>  <Document Journal>  (668) 
nan

>  <Document Year>  (668) 
nan

>  <Active>  (668) 
0.0

>  <bits>  (668) 
<rdkit.DataStructs.cDataStructs.ExplicitBitVect object at 0x00000159F540EAB0>

>  <Group>  (668) 
G2

$$$$

     RDKit          2D

 31 34  0  0  0  0  0  0  0  0999 V2000
   -8.1673  -10.4486    0.0000 O   0  0  0  0  0  0  0  0  0  0  0  0
   -7.8555   -8.9814    0.0000 C   0  0  0  0  0  0  0  0  0  0  0  0
   -6.4289   -8.5179    0.0000 C   0  0  0  0  0  0  0  0  0  0  0  0
   -6.1170   -7.0506    0.0000 C   0  0  0  0  0  0  0  0  0  0  0  0
   -4.6904   -6.5871    0.0000 N   0  0  0  0  0  0  0  0  0  0  0  0
   -4.3786   -5.1199    0.0000 C   0  0  0  0  0  0  0  0  0  0  0  0
   -5.4933   -4.1162    0.0000 N   0  0  0  0  0  0  0  0  0  0  0  0
   -5.1814   -2.6490    0.0000 C   0  0  0  0  0  0  0  0  0  0  0  0
   -3.7548   -2.1855    0.0000 C   0  0  0  0  0  0  0  0  0  0  0  0
   -2.6401   -3.1891    0.0000 C   0  0  0  0  0  0  0  0  0  0  0  0
   -1.2135   -2.7256    0.0000 C   0  0  0  0  0  0  0  0  0  0  0  0
   -0.0000   -3.6073    0.0000 C   0  0  0  0  0  0  0  0  0  0  0  0
   -0.0000   -5.1073    0.0000 C   0  0  0  0  0  0  0  0  0  0  0  0
   -1.2990   -5.8573    0.0000 C   0  0  0  0  0  0  0  0  0  0  0  0
   -1.2990   -7.3573    0.0000 C   0  0  0  0  0  0  0  0  0  0  0  0
   -0.0000   -8.1073    0.0000 C   0  0  0  0  0  0  0  0  0  0  0  0
    0.0000   -9.6073    0.0000 F   0  0  0  0  0  0  0  0  0  0  0  0
    1.2990   -7.3573    0.0000 C   0  0  0  0  0  0  0  0  0  0  0  0
    1.2990   -5.8573    0.0000 C   0  0  0  0  0  0  0  0  0  0  0  0
    1.2135   -2.7256    0.0000 N   0  0  0  0  0  0  0  0  0  0  0  0
    0.7500   -1.2990    0.0000 N   0  0  0  0  0  0  0  0  0  0  0  0
    1.5000    0.0000    0.0000 C   0  0  0  0  0  0  0  0  0  0  0  0
    0.7500    1.2990    0.0000 C   0  0  0  0  0  0  0  0  0  0  0  0
    1.5000    2.5981    0.0000 C   0  0  0  0  0  0  0  0  0  0  0  0
    2.2500    3.8971    0.0000 F   0  0  0  0  0  0  0  0  0  0  0  0
    2.7990    1.8481    0.0000 F   0  0  0  0  0  0  0  0  0  0  0  0
    0.2010    3.3481    0.0000 F   0  0  0  0  0  0  0  0  0  0  0  0
   -0.7500    1.2990    0.0000 C   0  0  0  0  0  0  0  0  0  0  0  0
   -1.5000    0.0000    0.0000 C   0  0  0  0  0  0  0  0  0  0  0  0
   -0.7500   -1.2990    0.0000 C   0  0  0  0  0  0  0  0  0  0  0  0
   -2.9520   -4.6564    0.0000 N   0  0  0  0  0  0  0  0  0  0  0  0
  1  2  1  0
  2  3  1  0
  3  4  1  0
  4  5  1  0
  5  6  1  0
  6  7  2  0
  7  8  1  0
  8  9  2  0
  9 10  1  0
 10 11  1  0
 11 12  1  0
 12 13  1  0
 13 14  2  0
 14 15  1  0
 15 16  2  0
 16 17  1  0
 16 18  1  0
 18 19  2  0
 12 20  2  0
 20 21  1  0
 21 22  1  0
 22 23  2  0
 23 24  1  0
 24 25  1  0
 24 26  1  0
 24 27  1  0
 23 28  1  0
 28 29  2  0
 29 30  1  0
 10 31  2  0
 31  6  1  0
 30 11  2  0
 19 13  1  0
 30 21  1  0
M  END
>  <Compound_ID>  (669) 
CHEMBL1909403

>  <Molecule Name>  (669) 
GW569293E

>  <Molecular Weight>  (669) 
547.47

>  <AlogP>  (669) 
4.41

>  <Smiles>  (669) 
OCCCNc1nccc(-c2c(-c3ccc(F)cc3)nn3cc(C(F)(F)F)ccc23)n1

>  <Standard Type>  (669) 
Inhibition

>  <Standard Relation>  (669) 
'='

>  <Standard Units>  (669) 
%

>  <Standard Value>  (669) 
1.07

>  <Assay ChEMBL ID>  (669) 
CHEMBL1962185

>  <Assay Description>  (669) 
GSK_PKIS: TRKA mean inhibition at 1 uM [Nanosyn]

>  <BAO Format ID>  (669) 
BAO_0000357

>  <BAO Label>  (669) 
single protein format

>  <Assay Organism>  (669) 
None

>  <Target ChEMBL ID>  (669) 
CHEMBL2815

>  <Target Name>  (669) 
Nerve growth factor receptor Trk-A

>  <Target Organism>  (669) 
Homo sapiens

>  <Target Type>  (669) 
SINGLE PROTEIN

>  <Document ChEMBL ID>  (669) 
CHEMBL1961873

>  <Source Description>  (669) 
GSK Published Kinase Inhibitor Set

>  <Document Journal>  (669) 
nan

>  <Document Year>  (669) 
nan

>  <Active>  (669) 
0.0

>  <bits>  (669) 
<rdkit.DataStructs.cDataStructs.ExplicitBitVect object at 0x00000159F540F840>

>  <Group>  (669) 
G2

$$$$

     RDKit          2D

 25 28  0  0  0  0  0  0  0  0999 V2000
    1.5000    0.0000    0.0000 C   0  0  0  0  0  0  0  0  0  0  0  0
    0.7500   -1.2990    0.0000 C   0  0  0  0  0  0  0  0  0  0  0  0
   -0.7500   -1.2990    0.0000 N   0  0  0  0  0  0  0  0  0  0  0  0
   -1.5000    0.0000    0.0000 N   0  0  0  0  0  0  0  0  0  0  0  0
   -2.9672    0.3119    0.0000 N   0  0  0  0  0  0  0  0  0  0  0  0
   -3.1240    1.8037    0.0000 C   0  0  0  0  0  0  0  0  0  0  0  0
   -1.7537    2.4138    0.0000 C   0  0  0  0  0  0  0  0  0  0  0  0
   -1.4418    3.8810    0.0000 C   0  0  0  0  0  0  0  0  0  0  0  0
   -0.0152    4.3445    0.0000 C   0  0  0  0  0  0  0  0  0  0  0  0
    0.2966    5.8117    0.0000 C   0  0  0  0  0  0  0  0  0  0  0  0
   -0.8181    6.8154    0.0000 N   0  0  0  0  0  0  0  0  0  0  0  0
   -2.2447    6.3519    0.0000 C   0  0  0  0  0  0  0  0  0  0  0  0
   -3.3594    7.3556    0.0000 N   0  0  0  0  0  0  0  0  0  0  0  0
   -3.0475    8.8228    0.0000 C   0  0  0  0  0  0  0  0  0  0  0  0
   -4.1622    9.8265    0.0000 C   0  0  0  0  0  0  0  0  0  0  0  0
   -3.8504   11.2937    0.0000 C   0  0  0  0  0  0  0  0  0  0  0  0
   -4.9651   12.2974    0.0000 N   0  0  0  0  0  0  0  0  0  0  0  0
   -4.6532   13.7646    0.0000 C   0  0  0  0  0  0  0  0  0  0  0  0
   -5.7679   14.7683    0.0000 C   0  0  0  0  0  0  0  0  0  0  0  0
   -7.1945   14.3048    0.0000 O   0  0  0  0  0  0  0  0  0  0  0  0
   -7.5064   12.8376    0.0000 C   0  0  0  0  0  0  0  0  0  0  0  0
   -6.3917   11.8339    0.0000 C   0  0  0  0  0  0  0  0  0  0  0  0
   -2.5565    4.8847    0.0000 N   0  0  0  0  0  0  0  0  0  0  0  0
   -0.7500    1.2990    0.0000 C   0  0  0  0  0  0  0  0  0  0  0  0
    0.7500    1.2990    0.0000 C   0  0  0  0  0  0  0  0  0  0  0  0
  1  2  1  0
  2  3  2  0
  3  4  1  0
  4  5  1  0
  5  6  2  0
  6  7  1  0
  7  8  1  0
  8  9  2  0
  9 10  1  0
 10 11  2  0
 11 12  1  0
 12 13  1  0
 13 14  1  0
 14 15  1  0
 15 16  1  0
 16 17  1  0
 17 18  1  0
 18 19  1  0
 19 20  1  0
 20 21  1  0
 21 22  1  0
 12 23  2  0
  7 24  2  0
 24 25  1  0
 25  1  2  0
 24  4  1  0
 23  8  1  0
 22 17  1  0
M  END
>  <Compound_ID>  (670) 
CHEMBL524901

>  <Molecule Name>  (670) 
GW683109X

>  <Molecular Weight>  (670) 
339.4

>  <AlogP>  (670) 
1.32

>  <Smiles>  (670) 
c1cnn2ncc(-c3ccnc(NCCCN4CCOCC4)n3)c2c1

>  <Standard Type>  (670) 
Inhibition

>  <Standard Relation>  (670) 
'='

>  <Standard Units>  (670) 
%

>  <Standard Value>  (670) 
2.69

>  <Assay ChEMBL ID>  (670) 
CHEMBL1962184

>  <Assay Description>  (670) 
GSK_PKIS: TRKA mean inhibition at 0.1 uM [Nanosyn]

>  <BAO Format ID>  (670) 
BAO_0000357

>  <BAO Label>  (670) 
single protein format

>  <Assay Organism>  (670) 
None

>  <Target ChEMBL ID>  (670) 
CHEMBL2815

>  <Target Name>  (670) 
Nerve growth factor receptor Trk-A

>  <Target Organism>  (670) 
Homo sapiens

>  <Target Type>  (670) 
SINGLE PROTEIN

>  <Document ChEMBL ID>  (670) 
CHEMBL1961873

>  <Source Description>  (670) 
GSK Published Kinase Inhibitor Set

>  <Document Journal>  (670) 
nan

>  <Document Year>  (670) 
nan

>  <Active>  (670) 
0.0

>  <bits>  (670) 
<rdkit.DataStructs.cDataStructs.ExplicitBitVect object at 0x00000159F540DE00>

>  <Group>  (670) 
G2

$$$$

     RDKit          2D

 30 33  0  0  0  0  0  0  0  0999 V2000
    1.3299    5.6152    0.0000 C   0  0  0  0  0  0  0  0  0  0  0  0
   -0.0967    5.1517    0.0000 O   0  0  0  0  0  0  0  0  0  0  0  0
   -0.4086    3.6844    0.0000 C   0  0  0  0  0  0  0  0  0  0  0  0
    0.7062    2.6807    0.0000 C   0  0  0  0  0  0  0  0  0  0  0  0
    0.3943    1.2135    0.0000 C   0  0  0  0  0  0  0  0  0  0  0  0
    1.2760    0.0000    0.0000 N   0  0  0  0  0  0  0  0  0  0  0  0
    0.3943   -1.2135    0.0000 C   0  0  0  0  0  0  0  0  0  0  0  0
   -1.0323   -0.7500    0.0000 N   0  0  0  0  0  0  0  0  0  0  0  0
   -2.2458   -1.6317    0.0000 C   0  0  0  0  0  0  0  0  0  0  0  0
   -2.2458   -3.1317    0.0000 C   0  0  0  0  0  0  0  0  0  0  0  0
   -3.6724   -3.5952    0.0000 C   0  0  0  0  0  0  0  0  0  0  0  0
   -4.1359   -5.0218    0.0000 O   0  0  0  0  0  0  0  0  0  0  0  0
   -5.6031   -5.3337    0.0000 C   0  0  0  0  0  0  0  0  0  0  0  0
   -6.0667   -6.7602    0.0000 C   0  0  0  0  0  0  0  0  0  0  0  0
   -7.5339   -7.0721    0.0000 C   0  0  0  0  0  0  0  0  0  0  0  0
   -8.5376   -5.9574    0.0000 C   0  0  0  0  0  0  0  0  0  0  0  0
  -10.0048   -6.2693    0.0000 C   0  0  0  0  0  0  0  0  0  0  0  0
  -10.4683   -7.6958    0.0000 C   0  0  0  0  0  0  0  0  0  0  0  0
   -9.4646   -8.8106    0.0000 C   0  0  0  0  0  0  0  0  0  0  0  0
   -7.9974   -8.4987    0.0000 C   0  0  0  0  0  0  0  0  0  0  0  0
   -4.5541   -2.3817    0.0000 C   0  0  0  0  0  0  0  0  0  0  0  0
   -6.0541   -2.3817    0.0000 C   0  0  0  0  0  0  0  0  0  0  0  0
   -6.8041   -1.0826    0.0000 N   0  0  0  0  0  0  0  0  0  0  0  0
   -6.8041   -3.6807    0.0000 O   0  0  0  0  0  0  0  0  0  0  0  0
   -3.6724   -1.1682    0.0000 S   0  0  0  0  0  0  0  0  0  0  0  0
   -1.0323    0.7500    0.0000 C   0  0  0  0  0  0  0  0  0  0  0  0
   -2.1470    1.7537    0.0000 C   0  0  0  0  0  0  0  0  0  0  0  0
   -1.8351    3.2209    0.0000 C   0  0  0  0  0  0  0  0  0  0  0  0
   -2.9499    4.2246    0.0000 O   0  0  0  0  0  0  0  0  0  0  0  0
   -4.3764    3.7611    0.0000 C   0  0  0  0  0  0  0  0  0  0  0  0
  1  2  1  0
  2  3  1  0
  3  4  2  0
  4  5  1  0
  5  6  1  0
  6  7  2  0
  7  8  1  0
  8  9  1  0
  9 10  2  0
 10 11  1  0
 11 12  1  0
 12 13  1  0
 13 14  1  0
 14 15  1  0
 15 16  2  0
 16 17  1  0
 17 18  2  0
 18 19  1  0
 19 20  2  0
 11 21  2  0
 21 22  1  0
 22 23  1  0
 22 24  2  0
 21 25  1  0
  8 26  1  0
 26 27  1  0
 27 28  2  0
 28 29  1  0
 29 30  1  0
 28  3  1  0
 26  5  2  0
 25  9  1  0
 20 15  1  0
M  END
>  <Compound_ID>  (671) 
CHEMBL473629

>  <Molecule Name>  (671) 
GSK-204925A

>  <Molecular Weight>  (671) 
423.49

>  <AlogP>  (671) 
3.82

>  <Smiles>  (671) 
COc1cc2ncn(-c3cc(OCCc4ccccc4)c(C(N)=O)s3)c2cc1OC

>  <Standard Type>  (671) 
Inhibition

>  <Standard Relation>  (671) 
'='

>  <Standard Units>  (671) 
%

>  <Standard Value>  (671) 
1.42

>  <Assay ChEMBL ID>  (671) 
CHEMBL1962184

>  <Assay Description>  (671) 
GSK_PKIS: TRKA mean inhibition at 0.1 uM [Nanosyn]

>  <BAO Format ID>  (671) 
BAO_0000357

>  <BAO Label>  (671) 
single protein format

>  <Assay Organism>  (671) 
None

>  <Target ChEMBL ID>  (671) 
CHEMBL2815

>  <Target Name>  (671) 
Nerve growth factor receptor Trk-A

>  <Target Organism>  (671) 
Homo sapiens

>  <Target Type>  (671) 
SINGLE PROTEIN

>  <Document ChEMBL ID>  (671) 
CHEMBL1961873

>  <Source Description>  (671) 
GSK Published Kinase Inhibitor Set

>  <Document Journal>  (671) 
nan

>  <Document Year>  (671) 
nan

>  <Active>  (671) 
0.0

>  <bits>  (671) 
<rdkit.DataStructs.cDataStructs.ExplicitBitVect object at 0x00000159F540FAE0>

>  <Group>  (671) 
G2

$$$$

     RDKit          2D

 18 20  0  0  0  0  0  0  0  0999 V2000
   -1.2990  -10.3573    0.0000 C   0  0  0  0  0  0  0  0  0  0  0  0
    0.0000   -9.6073    0.0000 O   0  0  0  0  0  0  0  0  0  0  0  0
    0.0000   -8.1073    0.0000 C   0  0  0  0  0  0  0  0  0  0  0  0
   -1.2990   -7.3573    0.0000 C   0  0  0  0  0  0  0  0  0  0  0  0
   -1.2990   -5.8573    0.0000 C   0  0  0  0  0  0  0  0  0  0  0  0
   -0.0000   -5.1073    0.0000 C   0  0  0  0  0  0  0  0  0  0  0  0
   -0.0000   -3.6073    0.0000 C   0  0  0  0  0  0  0  0  0  0  0  0
    1.2135   -2.7256    0.0000 C   0  0  0  0  0  0  0  0  0  0  0  0
    0.7500   -1.2990    0.0000 C   0  0  0  0  0  0  0  0  0  0  0  0
    1.5000    0.0000    0.0000 C   0  0  0  0  0  0  0  0  0  0  0  0
    3.0000    0.0000    0.0000 N   0  0  0  0  0  0  0  0  0  0  0  0
    0.7500    1.2990    0.0000 N   0  0  0  0  0  0  0  0  0  0  0  0
   -0.7500    1.2990    0.0000 C   0  0  0  0  0  0  0  0  0  0  0  0
   -1.5000    0.0000    0.0000 N   0  0  0  0  0  0  0  0  0  0  0  0
   -0.7500   -1.2990    0.0000 C   0  0  0  0  0  0  0  0  0  0  0  0
   -1.2135   -2.7256    0.0000 O   0  0  0  0  0  0  0  0  0  0  0  0
    1.2990   -5.8573    0.0000 C   0  0  0  0  0  0  0  0  0  0  0  0
    1.2990   -7.3573    0.0000 C   0  0  0  0  0  0  0  0  0  0  0  0
  1  2  1  0
  2  3  1  0
  3  4  2  0
  4  5  1  0
  5  6  2  0
  6  7  1  0
  7  8  2  0
  8  9  1  0
  9 10  2  0
 10 11  1  0
 10 12  1  0
 12 13  2  0
 13 14  1  0
 14 15  2  0
 15 16  1  0
  6 17  1  0
 17 18  2  0
 18  3  1  0
 16  7  1  0
 15  9  1  0
M  END
>  <Compound_ID>  (672) 
CHEMBL373073

>  <Molecule Name>  (672) 
GW642138X

>  <Molecular Weight>  (672) 
241.25

>  <AlogP>  (672) 
2.48

>  <Smiles>  (672) 
COc1ccc(-c2cc3c(N)ncnc3o2)cc1

>  <Standard Type>  (672) 
Inhibition

>  <Standard Relation>  (672) 
'='

>  <Standard Units>  (672) 
%

>  <Standard Value>  (672) 
-0.83

>  <Assay ChEMBL ID>  (672) 
CHEMBL1962184

>  <Assay Description>  (672) 
GSK_PKIS: TRKA mean inhibition at 0.1 uM [Nanosyn]

>  <BAO Format ID>  (672) 
BAO_0000357

>  <BAO Label>  (672) 
single protein format

>  <Assay Organism>  (672) 
None

>  <Target ChEMBL ID>  (672) 
CHEMBL2815

>  <Target Name>  (672) 
Nerve growth factor receptor Trk-A

>  <Target Organism>  (672) 
Homo sapiens

>  <Target Type>  (672) 
SINGLE PROTEIN

>  <Document ChEMBL ID>  (672) 
CHEMBL1961873

>  <Source Description>  (672) 
GSK Published Kinase Inhibitor Set

>  <Document Journal>  (672) 
nan

>  <Document Year>  (672) 
nan

>  <Active>  (672) 
0.0

>  <bits>  (672) 
<rdkit.DataStructs.cDataStructs.ExplicitBitVect object at 0x00000159F540DE70>

>  <Group>  (672) 
G2

$$$$

     RDKit          2D

 29 32  0  0  0  0  0  0  0  0999 V2000
    3.7500   -1.2990    0.0000 C   0  0  0  0  0  0  0  0  0  0  0  0
    3.0000    0.0000    0.0000 O   0  0  0  0  0  0  0  0  0  0  0  0
    1.5000    0.0000    0.0000 C   0  0  0  0  0  0  0  0  0  0  0  0
    0.7500   -1.2990    0.0000 C   0  0  0  0  0  0  0  0  0  0  0  0
   -0.7500   -1.2990    0.0000 C   0  0  0  0  0  0  0  0  0  0  0  0
   -1.5000    0.0000    0.0000 C   0  0  0  0  0  0  0  0  0  0  0  0
   -2.9672    0.3119    0.0000 C   0  0  0  0  0  0  0  0  0  0  0  0
   -4.0819   -0.6918    0.0000 C   0  0  0  0  0  0  0  0  0  0  0  0
   -5.5085   -0.2283    0.0000 C   0  0  0  0  0  0  0  0  0  0  0  0
   -6.6232   -1.2320    0.0000 C   0  0  0  0  0  0  0  0  0  0  0  0
   -6.3114   -2.6992    0.0000 N   0  0  0  0  0  0  0  0  0  0  0  0
   -4.8848   -3.1627    0.0000 C   0  0  0  0  0  0  0  0  0  0  0  0
   -4.5729   -4.6300    0.0000 N   0  0  0  0  0  0  0  0  0  0  0  0
   -5.6876   -5.6337    0.0000 C   0  0  0  0  0  0  0  0  0  0  0  0
   -7.1142   -5.1701    0.0000 C   0  0  0  0  0  0  0  0  0  0  0  0
   -8.2289   -6.1738    0.0000 C   0  0  0  0  0  0  0  0  0  0  0  0
   -7.9171   -7.6411    0.0000 C   0  0  0  0  0  0  0  0  0  0  0  0
   -6.4905   -8.1046    0.0000 C   0  0  0  0  0  0  0  0  0  0  0  0
   -6.1786   -9.5718    0.0000 O   0  0  0  0  0  0  0  0  0  0  0  0
   -7.2933  -10.5755    0.0000 C   0  0  0  0  0  0  0  0  0  0  0  0
   -8.4081  -11.5792    0.0000 F   0  0  0  0  0  0  0  0  0  0  0  0
   -6.2896  -11.6902    0.0000 F   0  0  0  0  0  0  0  0  0  0  0  0
   -8.2970   -9.4608    0.0000 F   0  0  0  0  0  0  0  0  0  0  0  0
   -5.3758   -7.1009    0.0000 C   0  0  0  0  0  0  0  0  0  0  0  0
   -3.7701   -2.1590    0.0000 N   0  0  0  0  0  0  0  0  0  0  0  0
   -3.1240    1.8037    0.0000 C   0  0  0  0  0  0  0  0  0  0  0  0
   -1.7537    2.4138    0.0000 N   0  0  0  0  0  0  0  0  0  0  0  0
   -0.7500    1.2990    0.0000 N   0  0  0  0  0  0  0  0  0  0  0  0
    0.7500    1.2990    0.0000 N   0  0  0  0  0  0  0  0  0  0  0  0
  1  2  1  0
  2  3  1  0
  3  4  1  0
  4  5  2  0
  5  6  1  0
  6  7  2  0
  7  8  1  0
  8  9  2  0
  9 10  1  0
 10 11  2  0
 11 12  1  0
 12 13  1  0
 13 14  1  0
 14 15  2  0
 15 16  1  0
 16 17  2  0
 17 18  1  0
 18 19  1  0
 19 20  1  0
 20 21  1  0
 20 22  1  0
 20 23  1  0
 18 24  2  0
 12 25  2  0
  7 26  1  0
 26 27  2  0
 27 28  1  0
 28 29  1  0
 29  3  2  0
 28  6  1  0
 25  8  1  0
 24 14  1  0
M  END
>  <Compound_ID>  (673) 
CHEMBL365248

>  <Molecule Name>  (673) 
GW810372X

>  <Molecular Weight>  (673) 
402.34

>  <AlogP>  (673) 
3.84

>  <Smiles>  (673) 
COc1ccc2c(-c3ccnc(Nc4cccc(OC(F)(F)F)c4)n3)cnn2n1

>  <Standard Type>  (673) 
Inhibition

>  <Standard Relation>  (673) 
'='

>  <Standard Units>  (673) 
%

>  <Standard Value>  (673) 
11.05

>  <Assay ChEMBL ID>  (673) 
CHEMBL1962185

>  <Assay Description>  (673) 
GSK_PKIS: TRKA mean inhibition at 1 uM [Nanosyn]

>  <BAO Format ID>  (673) 
BAO_0000357

>  <BAO Label>  (673) 
single protein format

>  <Assay Organism>  (673) 
None

>  <Target ChEMBL ID>  (673) 
CHEMBL2815

>  <Target Name>  (673) 
Nerve growth factor receptor Trk-A

>  <Target Organism>  (673) 
Homo sapiens

>  <Target Type>  (673) 
SINGLE PROTEIN

>  <Document ChEMBL ID>  (673) 
CHEMBL1961873

>  <Source Description>  (673) 
GSK Published Kinase Inhibitor Set

>  <Document Journal>  (673) 
nan

>  <Document Year>  (673) 
nan

>  <Active>  (673) 
0.0

>  <bits>  (673) 
<rdkit.DataStructs.cDataStructs.ExplicitBitVect object at 0x00000159F540FA00>

>  <Group>  (673) 
G2

$$$$

     RDKit          2D

 26 29  0  0  0  0  0  0  0  0999 V2000
   -9.1645    1.7722    0.0000 C   0  0  0  0  0  0  0  0  0  0  0  0
   -8.0498    0.7685    0.0000 O   0  0  0  0  0  0  0  0  0  0  0  0
   -6.6232    1.2320    0.0000 C   0  0  0  0  0  0  0  0  0  0  0  0
   -6.3114    2.6992    0.0000 C   0  0  0  0  0  0  0  0  0  0  0  0
   -4.8848    3.1627    0.0000 C   0  0  0  0  0  0  0  0  0  0  0  0
   -3.7701    2.1590    0.0000 C   0  0  0  0  0  0  0  0  0  0  0  0
   -4.0819    0.6918    0.0000 C   0  0  0  0  0  0  0  0  0  0  0  0
   -2.9672   -0.3119    0.0000 N   0  0  0  0  0  0  0  0  0  0  0  0
   -3.1240   -1.8037    0.0000 N   0  0  0  0  0  0  0  0  0  0  0  0
   -1.7537   -2.4138    0.0000 C   0  0  0  0  0  0  0  0  0  0  0  0
   -0.7500   -1.2990    0.0000 C   0  0  0  0  0  0  0  0  0  0  0  0
    0.7500   -1.2990    0.0000 C   0  0  0  0  0  0  0  0  0  0  0  0
    1.5000   -2.5981    0.0000 N   0  0  0  0  0  0  0  0  0  0  0  0
    3.0000   -2.5981    0.0000 N   0  0  0  0  0  0  0  0  0  0  0  0
    3.7500   -3.8971    0.0000 C   0  0  0  0  0  0  0  0  0  0  0  0
    5.2500   -3.8971    0.0000 C   0  0  0  0  0  0  0  0  0  0  0  0
    6.0000   -5.1962    0.0000 C   0  0  0  0  0  0  0  0  0  0  0  0
    7.5000   -5.1962    0.0000 C   0  0  0  0  0  0  0  0  0  0  0  0
    8.2500   -3.8971    0.0000 N   0  0  0  0  0  0  0  0  0  0  0  0
    7.5000   -2.5981    0.0000 C   0  0  0  0  0  0  0  0  0  0  0  0
    6.0000   -2.5981    0.0000 C   0  0  0  0  0  0  0  0  0  0  0  0
    1.5000    0.0000    0.0000 N   0  0  0  0  0  0  0  0  0  0  0  0
    0.7500    1.2990    0.0000 C   0  0  0  0  0  0  0  0  0  0  0  0
   -0.7500    1.2990    0.0000 N   0  0  0  0  0  0  0  0  0  0  0  0
   -1.5000    0.0000    0.0000 C   0  0  0  0  0  0  0  0  0  0  0  0
   -5.5085    0.2283    0.0000 C   0  0  0  0  0  0  0  0  0  0  0  0
  1  2  1  0
  2  3  1  0
  3  4  2  0
  4  5  1  0
  5  6  2  0
  6  7  1  0
  7  8  1  0
  8  9  1  0
  9 10  2  0
 10 11  1  0
 11 12  2  0
 12 13  1  0
 13 14  1  0
 14 15  2  0
 15 16  1  0
 16 17  2  0
 17 18  1  0
 18 19  2  0
 19 20  1  0
 20 21  2  0
 12 22  1  0
 22 23  2  0
 23 24  1  0
 24 25  2  0
  7 26  2  0
 26  3  1  0
 25  8  1  0
 25 11  1  0
 21 16  1  0
M  END
>  <Compound_ID>  (674) 
CHEMBL306865

>  <Molecule Name>  (674) 
GW784752X

>  <Molecular Weight>  (674) 
345.37

>  <AlogP>  (674) 
2.67

>  <Smiles>  (674) 
COc1cccc(-n2ncc3c(N/N=C/c4ccncc4)ncnc32)c1

>  <Standard Type>  (674) 
Inhibition

>  <Standard Relation>  (674) 
'='

>  <Standard Units>  (674) 
%

>  <Standard Value>  (674) 
3.46

>  <Assay ChEMBL ID>  (674) 
CHEMBL1962184

>  <Assay Description>  (674) 
GSK_PKIS: TRKA mean inhibition at 0.1 uM [Nanosyn]

>  <BAO Format ID>  (674) 
BAO_0000357

>  <BAO Label>  (674) 
single protein format

>  <Assay Organism>  (674) 
None

>  <Target ChEMBL ID>  (674) 
CHEMBL2815

>  <Target Name>  (674) 
Nerve growth factor receptor Trk-A

>  <Target Organism>  (674) 
Homo sapiens

>  <Target Type>  (674) 
SINGLE PROTEIN

>  <Document ChEMBL ID>  (674) 
CHEMBL1961873

>  <Source Description>  (674) 
GSK Published Kinase Inhibitor Set

>  <Document Journal>  (674) 
nan

>  <Document Year>  (674) 
nan

>  <Active>  (674) 
0.0

>  <bits>  (674) 
<rdkit.DataStructs.cDataStructs.ExplicitBitVect object at 0x00000159F540DAF0>

>  <Group>  (674) 
G2

$$$$

     RDKit          2D

 24 27  0  0  0  0  0  0  0  0999 V2000
    3.0000    0.0000    0.0000 O   0  0  0  0  0  0  0  0  0  0  0  0
    1.5000    0.0000    0.0000 C   0  0  0  0  0  0  0  0  0  0  0  0
    0.7500   -1.2990    0.0000 C   0  0  0  0  0  0  0  0  0  0  0  0
   -0.7500   -1.2990    0.0000 C   0  0  0  0  0  0  0  0  0  0  0  0
   -1.5000    0.0000    0.0000 C   0  0  0  0  0  0  0  0  0  0  0  0
   -0.7500    1.2990    0.0000 C   0  0  0  0  0  0  0  0  0  0  0  0
   -1.5000    2.5981    0.0000 C   0  0  0  0  0  0  0  0  0  0  0  0
   -2.9918    2.7549    0.0000 N   0  0  0  0  0  0  0  0  0  0  0  0
   -3.3037    4.2221    0.0000 C   0  0  0  0  0  0  0  0  0  0  0  0
   -4.6740    4.8322    0.0000 C   0  0  0  0  0  0  0  0  0  0  0  0
   -4.8308    6.3240    0.0000 C   0  0  0  0  0  0  0  0  0  0  0  0
   -6.2011    6.9341    0.0000 C   0  0  0  0  0  0  0  0  0  0  0  0
   -7.4146    6.0524    0.0000 C   0  0  0  0  0  0  0  0  0  0  0  0
   -7.2578    4.5606    0.0000 C   0  0  0  0  0  0  0  0  0  0  0  0
   -5.8875    3.9505    0.0000 C   0  0  0  0  0  0  0  0  0  0  0  0
   -2.0046    4.9721    0.0000 N   0  0  0  0  0  0  0  0  0  0  0  0
   -0.8899    3.9684    0.0000 C   0  0  0  0  0  0  0  0  0  0  0  0
    0.5773    4.2803    0.0000 C   0  0  0  0  0  0  0  0  0  0  0  0
    1.5810    3.1655    0.0000 C   0  0  0  0  0  0  0  0  0  0  0  0
    3.0482    3.4774    0.0000 C   0  0  0  0  0  0  0  0  0  0  0  0
    3.5118    4.9040    0.0000 N   0  0  0  0  0  0  0  0  0  0  0  0
    2.5081    6.0187    0.0000 C   0  0  0  0  0  0  0  0  0  0  0  0
    1.0409    5.7068    0.0000 C   0  0  0  0  0  0  0  0  0  0  0  0
    0.7500    1.2990    0.0000 C   0  0  0  0  0  0  0  0  0  0  0  0
  1  2  1  0
  2  3  2  0
  3  4  1  0
  4  5  2  0
  5  6  1  0
  6  7  1  0
  7  8  1  0
  8  9  2  0
  9 10  1  0
 10 11  2  0
 11 12  1  0
 12 13  2  0
 13 14  1  0
 14 15  2  0
  9 16  1  0
 16 17  1  0
 17 18  1  0
 18 19  2  0
 19 20  1  0
 20 21  2  0
 21 22  1  0
 22 23  2  0
  6 24  2  0
 24  2  1  0
 17  7  2  0
 23 18  1  0
 15 10  1  0
M  END
>  <Compound_ID>  (675) 
CHEMBL1909413

>  <Molecule Name>  (675) 
nan

>  <Molecular Weight>  (675) 
349.82

>  <AlogP>  (675) 
4.51

>  <Smiles>  (675) 
Oc1cccc(-c2nc(-c3ccccc3)[nH]c2-c2ccncc2)c1

>  <Standard Type>  (675) 
Inhibition

>  <Standard Relation>  (675) 
'='

>  <Standard Units>  (675) 
%

>  <Standard Value>  (675) 
3.43

>  <Assay ChEMBL ID>  (675) 
CHEMBL1962184

>  <Assay Description>  (675) 
GSK_PKIS: TRKA mean inhibition at 0.1 uM [Nanosyn]

>  <BAO Format ID>  (675) 
BAO_0000357

>  <BAO Label>  (675) 
single protein format

>  <Assay Organism>  (675) 
None

>  <Target ChEMBL ID>  (675) 
CHEMBL2815

>  <Target Name>  (675) 
Nerve growth factor receptor Trk-A

>  <Target Organism>  (675) 
Homo sapiens

>  <Target Type>  (675) 
SINGLE PROTEIN

>  <Document ChEMBL ID>  (675) 
CHEMBL1961873

>  <Source Description>  (675) 
GSK Published Kinase Inhibitor Set

>  <Document Journal>  (675) 
nan

>  <Document Year>  (675) 
nan

>  <Active>  (675) 
0.0

>  <bits>  (675) 
<rdkit.DataStructs.cDataStructs.ExplicitBitVect object at 0x00000159F540DCB0>

>  <Group>  (675) 
G2

$$$$

     RDKit          2D

 21 23  0  0  0  0  0  0  0  0999 V2000
   -7.7227   -2.1088    0.0000 C   0  0  0  0  0  0  0  0  0  0  0  0
   -6.2961   -1.6453    0.0000 N   0  0  0  0  0  0  0  0  0  0  0  0
   -5.9843   -0.1781    0.0000 C   0  0  0  0  0  0  0  0  0  0  0  0
   -5.1814   -2.6490    0.0000 C   0  0  0  0  0  0  0  0  0  0  0  0
   -3.7548   -2.1855    0.0000 C   0  0  0  0  0  0  0  0  0  0  0  0
   -2.6401   -3.1891    0.0000 C   0  0  0  0  0  0  0  0  0  0  0  0
   -1.2135   -2.7256    0.0000 N   0  0  0  0  0  0  0  0  0  0  0  0
   -0.0000   -3.6073    0.0000 C   0  0  0  0  0  0  0  0  0  0  0  0
   -0.0000   -5.1073    0.0000 C   0  0  0  0  0  0  0  0  0  0  0  0
    1.2135   -5.9890    0.0000 N   0  0  0  0  0  0  0  0  0  0  0  0
    0.7500   -7.4156    0.0000 O   0  0  0  0  0  0  0  0  0  0  0  0
   -0.7500   -7.4156    0.0000 N   0  0  0  0  0  0  0  0  0  0  0  0
   -1.2135   -5.9890    0.0000 C   0  0  0  0  0  0  0  0  0  0  0  0
   -2.6401   -5.5255    0.0000 N   0  0  0  0  0  0  0  0  0  0  0  0
    1.2135   -2.7256    0.0000 N   0  0  0  0  0  0  0  0  0  0  0  0
    0.7500   -1.2990    0.0000 C   0  0  0  0  0  0  0  0  0  0  0  0
    1.5000    0.0000    0.0000 C   0  0  0  0  0  0  0  0  0  0  0  0
    0.7500    1.2990    0.0000 N   0  0  0  0  0  0  0  0  0  0  0  0
   -0.7500    1.2990    0.0000 C   0  0  0  0  0  0  0  0  0  0  0  0
   -1.5000    0.0000    0.0000 C   0  0  0  0  0  0  0  0  0  0  0  0
   -0.7500   -1.2990    0.0000 C   0  0  0  0  0  0  0  0  0  0  0  0
  1  2  1  0
  2  3  1  0
  2  4  1  0
  4  5  1  0
  5  6  1  0
  6  7  1  0
  7  8  1  0
  8  9  1  0
  9 10  2  0
 10 11  1  0
 11 12  1  0
 12 13  2  0
 13 14  1  0
  8 15  2  0
 15 16  1  0
 16 17  2  0
 17 18  1  0
 18 19  2  0
 19 20  1  0
 20 21  2  0
 21  7  1  0
 13  9  1  0
 21 16  1  0
M  END
>  <Compound_ID>  (676) 
CHEMBL191105

>  <Molecule Name>  (676) 
nan

>  <Molecular Weight>  (676) 
287.33

>  <AlogP>  (676) 
1.02

>  <Smiles>  (676) 
CN(C)CCCn1c(-c2nonc2N)nc2cnccc21

>  <Standard Type>  (676) 
Inhibition

>  <Standard Relation>  (676) 
'='

>  <Standard Units>  (676) 
%

>  <Standard Value>  (676) 
1.3

>  <Assay ChEMBL ID>  (676) 
CHEMBL1962184

>  <Assay Description>  (676) 
GSK_PKIS: TRKA mean inhibition at 0.1 uM [Nanosyn]

>  <BAO Format ID>  (676) 
BAO_0000357

>  <BAO Label>  (676) 
single protein format

>  <Assay Organism>  (676) 
None

>  <Target ChEMBL ID>  (676) 
CHEMBL2815

>  <Target Name>  (676) 
Nerve growth factor receptor Trk-A

>  <Target Organism>  (676) 
Homo sapiens

>  <Target Type>  (676) 
SINGLE PROTEIN

>  <Document ChEMBL ID>  (676) 
CHEMBL1961873

>  <Source Description>  (676) 
GSK Published Kinase Inhibitor Set

>  <Document Journal>  (676) 
nan

>  <Document Year>  (676) 
nan

>  <Active>  (676) 
0.0

>  <bits>  (676) 
<rdkit.DataStructs.cDataStructs.ExplicitBitVect object at 0x00000159F540DBD0>

>  <Group>  (676) 
G2

$$$$

     RDKit          2D

 42 46  0  0  0  0  0  0  0  0999 V2000
   -1.3632  -12.1594    0.0000 C   0  0  0  0  0  0  0  0  0  0  0  0
   -1.2064  -10.6676    0.0000 S   0  0  0  0  0  0  0  0  0  0  0  0
    0.2854  -10.8244    0.0000 O   0  0  0  0  0  0  0  0  0  0  0  0
   -2.6982  -10.5109    0.0000 O   0  0  0  0  0  0  0  0  0  0  0  0
   -1.0496   -9.1759    0.0000 C   0  0  0  0  0  0  0  0  0  0  0  0
    0.3207   -8.5658    0.0000 C   0  0  0  0  0  0  0  0  0  0  0  0
    0.4775   -7.0740    0.0000 N   0  0  0  0  0  0  0  0  0  0  0  0
    1.8478   -6.4639    0.0000 C   0  0  0  0  0  0  0  0  0  0  0  0
    2.0046   -4.9721    0.0000 C   0  0  0  0  0  0  0  0  0  0  0  0
    3.3037   -4.2221    0.0000 C   0  0  0  0  0  0  0  0  0  0  0  0
    2.9918   -2.7549    0.0000 C   0  0  0  0  0  0  0  0  0  0  0  0
    1.5000   -2.5981    0.0000 C   0  0  0  0  0  0  0  0  0  0  0  0
    0.7500   -1.2990    0.0000 C   0  0  0  0  0  0  0  0  0  0  0  0
    1.5000    0.0000    0.0000 C   0  0  0  0  0  0  0  0  0  0  0  0
    0.7500    1.2990    0.0000 C   0  0  0  0  0  0  0  0  0  0  0  0
   -0.7500    1.2990    0.0000 C   0  0  0  0  0  0  0  0  0  0  0  0
   -1.5000    2.5981    0.0000 N   0  0  0  0  0  0  0  0  0  0  0  0
   -3.0000    2.5981    0.0000 C   0  0  0  0  0  0  0  0  0  0  0  0
   -3.7500    1.2990    0.0000 N   0  0  0  0  0  0  0  0  0  0  0  0
   -3.0000    0.0000    0.0000 C   0  0  0  0  0  0  0  0  0  0  0  0
   -3.7500   -1.2990    0.0000 N   0  0  0  0  0  0  0  0  0  0  0  0
   -5.2500   -1.2990    0.0000 C   0  0  0  0  0  0  0  0  0  0  0  0
   -6.0000    0.0000    0.0000 C   0  0  0  0  0  0  0  0  0  0  0  0
   -7.5000    0.0000    0.0000 C   0  0  0  0  0  0  0  0  0  0  0  0
   -8.2500   -1.2990    0.0000 C   0  0  0  0  0  0  0  0  0  0  0  0
   -9.7500   -1.2990    0.0000 O   0  0  0  0  0  0  0  0  0  0  0  0
  -10.5000    0.0000    0.0000 C   0  0  0  0  0  0  0  0  0  0  0  0
  -12.0000    0.0000    0.0000 C   0  0  0  0  0  0  0  0  0  0  0  0
  -12.7500    1.2990    0.0000 C   0  0  0  0  0  0  0  0  0  0  0  0
  -14.2500    1.2990    0.0000 C   0  0  0  0  0  0  0  0  0  0  0  0
  -15.0000    0.0000    0.0000 C   0  0  0  0  0  0  0  0  0  0  0  0
  -14.2500   -1.2990    0.0000 C   0  0  0  0  0  0  0  0  0  0  0  0
  -15.0000   -2.5981    0.0000 C   0  0  0  0  0  0  0  0  0  0  0  0
  -15.7500   -3.8971    0.0000 F   0  0  0  0  0  0  0  0  0  0  0  0
  -16.2990   -1.8481    0.0000 F   0  0  0  0  0  0  0  0  0  0  0  0
  -13.7010   -3.3481    0.0000 F   0  0  0  0  0  0  0  0  0  0  0  0
  -12.7500   -1.2990    0.0000 C   0  0  0  0  0  0  0  0  0  0  0  0
   -7.5000   -2.5981    0.0000 C   0  0  0  0  0  0  0  0  0  0  0  0
   -6.0000   -2.5981    0.0000 C   0  0  0  0  0  0  0  0  0  0  0  0
   -1.5000    0.0000    0.0000 C   0  0  0  0  0  0  0  0  0  0  0  0
   -0.7500   -1.2990    0.0000 C   0  0  0  0  0  0  0  0  0  0  0  0
    0.8899   -3.9684    0.0000 O   0  0  0  0  0  0  0  0  0  0  0  0
  1  2  1  0
  2  3  2  0
  2  4  2  0
  2  5  1  0
  5  6  1  0
  6  7  1  0
  7  8  1  0
  8  9  1  0
  9 10  2  0
 10 11  1  0
 11 12  2  0
 12 13  1  0
 13 14  2  0
 14 15  1  0
 15 16  2  0
 16 17  1  0
 17 18  2  0
 18 19  1  0
 19 20  2  0
 20 21  1  0
 21 22  1  0
 22 23  2  0
 23 24  1  0
 24 25  2  0
 25 26  1  0
 26 27  1  0
 27 28  1  0
 28 29  2  0
 29 30  1  0
 30 31  2  0
 31 32  1  0
 32 33  1  0
 33 34  1  0
 33 35  1  0
 33 36  1  0
 32 37  2  0
 25 38  1  0
 38 39  2  0
 20 40  1  0
 40 41  2  0
 12 42  1  0
 42  9  1  0
 41 13  1  0
 40 16  1  0
 39 22  1  0
 37 28  1  0
M  END
>  <Compound_ID>  (677) 
CHEMBL1909387

>  <Molecule Name>  (677) 
GW567808A

>  <Molecular Weight>  (677) 
633.09

>  <AlogP>  (677) 
6.37

>  <Smiles>  (677) 
CS(=O)(=O)CCNCc1ccc(-c2ccc3ncnc(Nc4ccc(OCc5cccc(C(F)(F)F)c5)cc4)c3c2)o1

>  <Standard Type>  (677) 
Inhibition

>  <Standard Relation>  (677) 
'='

>  <Standard Units>  (677) 
%

>  <Standard Value>  (677) 
7.21

>  <Assay ChEMBL ID>  (677) 
CHEMBL1962185

>  <Assay Description>  (677) 
GSK_PKIS: TRKA mean inhibition at 1 uM [Nanosyn]

>  <BAO Format ID>  (677) 
BAO_0000357

>  <BAO Label>  (677) 
single protein format

>  <Assay Organism>  (677) 
None

>  <Target ChEMBL ID>  (677) 
CHEMBL2815

>  <Target Name>  (677) 
Nerve growth factor receptor Trk-A

>  <Target Organism>  (677) 
Homo sapiens

>  <Target Type>  (677) 
SINGLE PROTEIN

>  <Document ChEMBL ID>  (677) 
CHEMBL1961873

>  <Source Description>  (677) 
GSK Published Kinase Inhibitor Set

>  <Document Journal>  (677) 
nan

>  <Document Year>  (677) 
nan

>  <Active>  (677) 
0.0

>  <bits>  (677) 
<rdkit.DataStructs.cDataStructs.ExplicitBitVect object at 0x00000159F540EE30>

>  <Group>  (677) 
G2

$$$$

     RDKit          2D

 33 37  0  0  0  0  0  0  0  0999 V2000
    6.0000   -0.0000    0.0000 C   0  0  0  0  0  0  0  0  0  0  0  0
    5.2500   -1.2990    0.0000 C   0  0  0  0  0  0  0  0  0  0  0  0
    6.0000   -2.5981    0.0000 C   0  0  0  0  0  0  0  0  0  0  0  0
    5.2500   -3.8971    0.0000 C   0  0  0  0  0  0  0  0  0  0  0  0
    3.7500   -3.8971    0.0000 C   0  0  0  0  0  0  0  0  0  0  0  0
    3.0000   -2.5981    0.0000 C   0  0  0  0  0  0  0  0  0  0  0  0
    1.5000   -2.5981    0.0000 N   0  0  0  0  0  0  0  0  0  0  0  0
    0.7500   -1.2990    0.0000 C   0  0  0  0  0  0  0  0  0  0  0  0
    1.5000    0.0000    0.0000 N   0  0  0  0  0  0  0  0  0  0  0  0
    0.7500    1.2990    0.0000 C   0  0  0  0  0  0  0  0  0  0  0  0
   -0.7500    1.2990    0.0000 N   0  0  0  0  0  0  0  0  0  0  0  0
   -1.5000    0.0000    0.0000 C   0  0  0  0  0  0  0  0  0  0  0  0
   -0.7500   -1.2990    0.0000 C   0  0  0  0  0  0  0  0  0  0  0  0
   -1.5000   -2.5981    0.0000 C   0  0  0  0  0  0  0  0  0  0  0  0
   -3.0000   -2.5981    0.0000 N   0  0  0  0  0  0  0  0  0  0  0  0
   -3.7500   -3.8971    0.0000 C   0  0  0  0  0  0  0  0  0  0  0  0
   -3.0000   -5.1962    0.0000 O   0  0  0  0  0  0  0  0  0  0  0  0
   -5.2500   -3.8971    0.0000 C   0  0  0  0  0  0  0  0  0  0  0  0
   -6.0000   -2.5981    0.0000 C   0  0  0  0  0  0  0  0  0  0  0  0
   -7.5000   -2.5981    0.0000 C   0  0  0  0  0  0  0  0  0  0  0  0
   -8.2500   -3.8971    0.0000 C   0  0  0  0  0  0  0  0  0  0  0  0
   -9.7500   -3.8971    0.0000 N   0  0  0  0  0  0  0  0  0  0  0  0
  -10.5000   -2.5981    0.0000 C   0  0  0  0  0  0  0  0  0  0  0  0
  -10.5000   -5.1962    0.0000 C   0  0  0  0  0  0  0  0  0  0  0  0
   -7.5000   -5.1962    0.0000 C   0  0  0  0  0  0  0  0  0  0  0  0
   -8.2500   -6.4952    0.0000 C   0  0  0  0  0  0  0  0  0  0  0  0
   -7.5000   -7.7942    0.0000 C   0  0  0  0  0  0  0  0  0  0  0  0
   -6.0000   -7.7942    0.0000 C   0  0  0  0  0  0  0  0  0  0  0  0
   -5.2500   -6.4952    0.0000 C   0  0  0  0  0  0  0  0  0  0  0  0
   -6.0000   -5.1962    0.0000 C   0  0  0  0  0  0  0  0  0  0  0  0
   -3.7500   -1.2990    0.0000 C   0  0  0  0  0  0  0  0  0  0  0  0
   -3.0000    0.0000    0.0000 C   0  0  0  0  0  0  0  0  0  0  0  0
    3.7500   -1.2990    0.0000 C   0  0  0  0  0  0  0  0  0  0  0  0
  1  2  1  0
  2  3  2  0
  3  4  1  0
  4  5  2  0
  5  6  1  0
  6  7  1  0
  7  8  1  0
  8  9  2  0
  9 10  1  0
 10 11  2  0
 11 12  1  0
 12 13  2  0
 13 14  1  0
 14 15  1  0
 15 16  1  0
 16 17  2  0
 16 18  1  0
 18 19  2  0
 19 20  1  0
 20 21  2  0
 21 22  1  0
 22 23  1  0
 22 24  1  0
 21 25  1  0
 25 26  2  0
 26 27  1  0
 27 28  2  0
 28 29  1  0
 29 30  2  0
 15 31  1  0
 31 32  1  0
  6 33  2  0
 33  2  1  0
 13  8  1  0
 30 18  1  0
 32 12  1  0
 30 25  1  0
M  END
>  <Compound_ID>  (678) 
CHEMBL484324

>  <Molecule Name>  (678) 
nan

>  <Molecular Weight>  (678) 
437.55

>  <AlogP>  (678) 
4.95

>  <Smiles>  (678) 
Cc1cccc(Nc2ncnc3c2CN(C(=O)c2ccc(N(C)C)c4ccccc24)CC3)c1

>  <Standard Type>  (678) 
Inhibition

>  <Standard Relation>  (678) 
'='

>  <Standard Units>  (678) 
%

>  <Standard Value>  (678) 
8.0

>  <Assay ChEMBL ID>  (678) 
CHEMBL965679

>  <Assay Description>  (678) 
Inhibition of TrkA at 10 uM by HTRF assay relative to control

>  <BAO Format ID>  (678) 
BAO_0000357

>  <BAO Label>  (678) 
single protein format

>  <Assay Organism>  (678) 
None

>  <Target ChEMBL ID>  (678) 
CHEMBL2815

>  <Target Name>  (678) 
Nerve growth factor receptor Trk-A

>  <Target Organism>  (678) 
Homo sapiens

>  <Target Type>  (678) 
SINGLE PROTEIN

>  <Document ChEMBL ID>  (678) 
CHEMBL1150387

>  <Source Description>  (678) 
Scientific Literature

>  <Document Journal>  (678) 
J Med Chem

>  <Document Year>  (678) 
2008.0

>  <Active>  (678) 
0.0

>  <bits>  (678) 
<rdkit.DataStructs.cDataStructs.ExplicitBitVect object at 0x00000159F540D460>

>  <Group>  (678) 
G2

$$$$

     RDKit          2D

 32 36  0  0  0  0  0  0  0  0999 V2000
    1.7745   13.9550    0.0000 O   0  0  0  0  0  0  0  0  0  0  0  0
    1.4627   12.4878    0.0000 C   0  0  0  0  0  0  0  0  0  0  0  0
    2.5774   11.4841    0.0000 N   0  0  0  0  0  0  0  0  0  0  0  0
    4.0040   11.9476    0.0000 C   0  0  0  0  0  0  0  0  0  0  0  0
    5.1187   10.9439    0.0000 C   0  0  0  0  0  0  0  0  0  0  0  0
    4.8068    9.4767    0.0000 C   0  0  0  0  0  0  0  0  0  0  0  0
    5.9215    8.4730    0.0000 C   0  0  0  0  0  0  0  0  0  0  0  0
    7.3481    8.9365    0.0000 C   0  0  0  0  0  0  0  0  0  0  0  0
    7.6600   10.4037    0.0000 N   0  0  0  0  0  0  0  0  0  0  0  0
    6.5453   11.4074    0.0000 C   0  0  0  0  0  0  0  0  0  0  0  0
    0.0361   12.0242    0.0000 C   0  0  0  0  0  0  0  0  0  0  0  0
   -1.0786   13.0279    0.0000 C   0  0  0  0  0  0  0  0  0  0  0  0
   -2.5052   12.5644    0.0000 C   0  0  0  0  0  0  0  0  0  0  0  0
   -2.8171   11.0972    0.0000 C   0  0  0  0  0  0  0  0  0  0  0  0
   -1.7024   10.0935    0.0000 C   0  0  0  0  0  0  0  0  0  0  0  0
   -2.0143    8.6263    0.0000 C   0  0  0  0  0  0  0  0  0  0  0  0
   -3.4408    8.1628    0.0000 C   0  0  0  0  0  0  0  0  0  0  0  0
   -3.7527    6.6955    0.0000 C   0  0  0  0  0  0  0  0  0  0  0  0
   -2.6380    5.6918    0.0000 C   0  0  0  0  0  0  0  0  0  0  0  0
   -2.9499    4.2246    0.0000 N   0  0  0  0  0  0  0  0  0  0  0  0
   -1.8351    3.2209    0.0000 C   0  0  0  0  0  0  0  0  0  0  0  0
   -0.4086    3.6844    0.0000 C   0  0  0  0  0  0  0  0  0  0  0  0
    0.7062    2.6807    0.0000 C   0  0  0  0  0  0  0  0  0  0  0  0
    0.3943    1.2135    0.0000 C   0  0  0  0  0  0  0  0  0  0  0  0
    1.2760    0.0000    0.0000 N   0  0  0  0  0  0  0  0  0  0  0  0
    0.3943   -1.2135    0.0000 C   0  0  0  0  0  0  0  0  0  0  0  0
   -1.0323   -0.7500    0.0000 S   0  0  0  0  0  0  0  0  0  0  0  0
   -1.0323    0.7500    0.0000 C   0  0  0  0  0  0  0  0  0  0  0  0
   -2.1470    1.7537    0.0000 C   0  0  0  0  0  0  0  0  0  0  0  0
   -1.2114    6.1554    0.0000 N   0  0  0  0  0  0  0  0  0  0  0  0
   -0.8995    7.6226    0.0000 N   0  0  0  0  0  0  0  0  0  0  0  0
   -0.2758   10.5570    0.0000 C   0  0  0  0  0  0  0  0  0  0  0  0
  1  2  2  0
  2  3  1  0
  3  4  1  0
  4  5  1  0
  5  6  2  0
  6  7  1  0
  7  8  2  0
  8  9  1  0
  9 10  2  0
  2 11  1  0
 11 12  2  0
 12 13  1  0
 13 14  2  0
 14 15  1  0
 15 16  1  0
 16 17  2  0
 17 18  1  0
 18 19  2  0
 19 20  1  0
 20 21  1  0
 21 22  2  0
 22 23  1  0
 23 24  2  0
 24 25  1  0
 25 26  2  0
 26 27  1  0
 27 28  1  0
 28 29  2  0
 19 30  1  0
 30 31  2  0
 15 32  2  0
 10  5  1  0
 32 11  1  0
 31 16  1  0
 29 21  1  0
 28 24  1  0
M  END
>  <Compound_ID>  (679) 
CHEMBL501182

>  <Molecule Name>  (679) 
nan

>  <Molecular Weight>  (679) 
438.52

>  <AlogP>  (679) 
4.82

>  <Smiles>  (679) 
O=C(NCc1cccnc1)c1cccc(-c2ccc(Nc3ccc4ncsc4c3)nn2)c1

>  <Standard Type>  (679) 
Inhibition

>  <Standard Relation>  (679) 
'='

>  <Standard Units>  (679) 
%

>  <Standard Value>  (679) 
0.0

>  <Assay ChEMBL ID>  (679) 
CHEMBL965679

>  <Assay Description>  (679) 
Inhibition of TrkA at 10 uM by HTRF assay relative to control

>  <BAO Format ID>  (679) 
BAO_0000357

>  <BAO Label>  (679) 
single protein format

>  <Assay Organism>  (679) 
None

>  <Target ChEMBL ID>  (679) 
CHEMBL2815

>  <Target Name>  (679) 
Nerve growth factor receptor Trk-A

>  <Target Organism>  (679) 
Homo sapiens

>  <Target Type>  (679) 
SINGLE PROTEIN

>  <Document ChEMBL ID>  (679) 
CHEMBL1150387

>  <Source Description>  (679) 
Scientific Literature

>  <Document Journal>  (679) 
J Med Chem

>  <Document Year>  (679) 
2008.0

>  <Active>  (679) 
0.0

>  <bits>  (679) 
<rdkit.DataStructs.cDataStructs.ExplicitBitVect object at 0x00000159F540D9A0>

>  <Group>  (679) 
G2

$$$$

     RDKit          2D

 33 36  0  0  0  0  0  0  0  0999 V2000
    3.0000    0.0000    0.0000 C   0  0  0  0  0  0  0  0  0  0  0  0
    1.5000    0.0000    0.0000 C   0  0  0  0  0  0  0  0  0  0  0  0
    0.7500   -1.2990    0.0000 N   0  0  0  0  0  0  0  0  0  0  0  0
   -0.7500   -1.2990    0.0000 C   0  0  0  0  0  0  0  0  0  0  0  0
   -1.5000   -2.5981    0.0000 N   0  0  0  0  0  0  0  0  0  0  0  0
   -3.0000   -2.5981    0.0000 C   0  0  0  0  0  0  0  0  0  0  0  0
   -3.8817   -3.8116    0.0000 N   0  0  0  0  0  0  0  0  0  0  0  0
   -5.3083   -3.3481    0.0000 C   0  0  0  0  0  0  0  0  0  0  0  0
   -5.3083   -1.8481    0.0000 C   0  0  0  0  0  0  0  0  0  0  0  0
   -6.5218   -0.9664    0.0000 C   0  0  0  0  0  0  0  0  0  0  0  0
   -7.8921   -1.5765    0.0000 O   0  0  0  0  0  0  0  0  0  0  0  0
   -6.3650    0.5254    0.0000 N   0  0  0  0  0  0  0  0  0  0  0  0
   -7.5785    1.4071    0.0000 C   0  0  0  0  0  0  0  0  0  0  0  0
   -7.4217    2.8988    0.0000 C   0  0  0  0  0  0  0  0  0  0  0  0
   -6.0514    3.5090    0.0000 C   0  0  0  0  0  0  0  0  0  0  0  0
   -8.6353    3.7805    0.0000 C   0  0  0  0  0  0  0  0  0  0  0  0
  -10.0056    3.1704    0.0000 C   0  0  0  0  0  0  0  0  0  0  0  0
  -10.1624    1.6786    0.0000 C   0  0  0  0  0  0  0  0  0  0  0  0
   -8.9488    0.7970    0.0000 C   0  0  0  0  0  0  0  0  0  0  0  0
   -9.1056   -0.6948    0.0000 Cl  0  0  0  0  0  0  0  0  0  0  0  0
   -3.8817   -1.3846    0.0000 S   0  0  0  0  0  0  0  0  0  0  0  0
   -1.5000    0.0000    0.0000 C   0  0  0  0  0  0  0  0  0  0  0  0
   -0.7500    1.2990    0.0000 C   0  0  0  0  0  0  0  0  0  0  0  0
   -1.5000    2.5981    0.0000 N   0  0  0  0  0  0  0  0  0  0  0  0
   -0.7500    3.8971    0.0000 C   0  0  0  0  0  0  0  0  0  0  0  0
   -1.5000    5.1962    0.0000 C   0  0  0  0  0  0  0  0  0  0  0  0
   -3.0000    5.1962    0.0000 N   0  0  0  0  0  0  0  0  0  0  0  0
   -3.7500    6.4952    0.0000 C   0  0  0  0  0  0  0  0  0  0  0  0
   -3.0000    7.7942    0.0000 C   0  0  0  0  0  0  0  0  0  0  0  0
   -3.7500    9.0933    0.0000 F   0  0  0  0  0  0  0  0  0  0  0  0
   -3.7500    3.8971    0.0000 C   0  0  0  0  0  0  0  0  0  0  0  0
   -3.0000    2.5981    0.0000 C   0  0  0  0  0  0  0  0  0  0  0  0
    0.7500    1.2990    0.0000 N   0  0  0  0  0  0  0  0  0  0  0  0
  1  2  1  0
  2  3  2  0
  3  4  1  0
  4  5  1  0
  5  6  1  0
  6  7  2  0
  7  8  1  0
  8  9  2  0
  9 10  1  0
 10 11  2  0
 10 12  1  0
 12 13  1  0
 13 14  2  0
 14 15  1  0
 14 16  1  0
 16 17  2  0
 17 18  1  0
 18 19  2  0
 19 20  1  0
  9 21  1  0
  4 22  2  0
 22 23  1  0
 23 24  1  0
 24 25  1  0
 25 26  1  0
 26 27  1  0
 27 28  1  0
 28 29  1  0
 29 30  1  0
 27 31  1  0
 31 32  1  0
 23 33  2  0
 33  2  1  0
 21  6  1  0
 32 24  1  0
 19 13  1  0
M  END
>  <Compound_ID>  (680) 
CHEMBL240158

>  <Molecule Name>  (680) 
nan

>  <Molecular Weight>  (680) 
490.01

>  <AlogP>  (680) 
4.29

>  <Smiles>  (680) 
Cc1nc(Nc2ncc(C(=O)Nc3c(C)cccc3Cl)s2)cc(N2CCN(CCF)CC2)n1

>  <Standard Type>  (680) 
Inhibition

>  <Standard Relation>  (680) 
'='

>  <Standard Units>  (680) 
%

>  <Standard Value>  (680) 
-0.9

>  <Assay ChEMBL ID>  (680) 
CHEMBL901559

>  <Assay Description>  (680) 
Inhibition of TRKA at 10 nM

>  <BAO Format ID>  (680) 
BAO_0000357

>  <BAO Label>  (680) 
single protein format

>  <Assay Organism>  (680) 
None

>  <Target ChEMBL ID>  (680) 
CHEMBL2815

>  <Target Name>  (680) 
Nerve growth factor receptor Trk-A

>  <Target Organism>  (680) 
Homo sapiens

>  <Target Type>  (680) 
SINGLE PROTEIN

>  <Document ChEMBL ID>  (680) 
CHEMBL1138257

>  <Source Description>  (680) 
Scientific Literature

>  <Document Journal>  (680) 
J Med Chem

>  <Document Year>  (680) 
2007.0

>  <Active>  (680) 
0.0

>  <bits>  (680) 
<rdkit.DataStructs.cDataStructs.ExplicitBitVect object at 0x00000159F540D930>

>  <Group>  (680) 
G2

$$$$

     RDKit          2D

 31 33  0  0  0  0  0  0  0  0999 V2000
    6.7500    1.2990    0.0000 C   0  0  0  0  0  0  0  0  0  0  0  0
    6.0000   -0.0000    0.0000 C   0  0  0  0  0  0  0  0  0  0  0  0
    5.2500   -1.2990    0.0000 C   0  0  0  0  0  0  0  0  0  0  0  0
    6.0000   -2.5981    0.0000 C   0  0  0  0  0  0  0  0  0  0  0  0
    5.2500   -3.8971    0.0000 C   0  0  0  0  0  0  0  0  0  0  0  0
    3.7500   -3.8971    0.0000 C   0  0  0  0  0  0  0  0  0  0  0  0
    3.0000   -2.5981    0.0000 C   0  0  0  0  0  0  0  0  0  0  0  0
    1.5000   -2.5981    0.0000 N   0  0  0  0  0  0  0  0  0  0  0  0
    0.7500   -1.2990    0.0000 C   0  0  0  0  0  0  0  0  0  0  0  0
    1.5000    0.0000    0.0000 N   0  0  0  0  0  0  0  0  0  0  0  0
    0.7500    1.2990    0.0000 C   0  0  0  0  0  0  0  0  0  0  0  0
   -0.7500    1.2990    0.0000 N   0  0  0  0  0  0  0  0  0  0  0  0
   -1.5000    0.0000    0.0000 C   0  0  0  0  0  0  0  0  0  0  0  0
   -3.0000    0.0000    0.0000 C   0  0  0  0  0  0  0  0  0  0  0  0
   -3.7500   -1.2990    0.0000 C   0  0  0  0  0  0  0  0  0  0  0  0
   -3.0000   -2.5981    0.0000 C   0  0  0  0  0  0  0  0  0  0  0  0
   -3.7500   -3.8971    0.0000 O   0  0  0  0  0  0  0  0  0  0  0  0
   -5.2500   -3.8971    0.0000 C   0  0  0  0  0  0  0  0  0  0  0  0
   -6.0000   -5.1962    0.0000 C   0  0  0  0  0  0  0  0  0  0  0  0
   -7.5000   -5.1962    0.0000 C   0  0  0  0  0  0  0  0  0  0  0  0
   -8.2500   -6.4952    0.0000 C   0  0  0  0  0  0  0  0  0  0  0  0
   -9.7500   -6.4952    0.0000 N   0  0  0  0  0  0  0  0  0  0  0  0
  -10.5000   -7.7942    0.0000 C   0  0  0  0  0  0  0  0  0  0  0  0
  -12.0000   -7.7942    0.0000 C   0  0  0  0  0  0  0  0  0  0  0  0
  -12.7500   -9.0933    0.0000 S   0  0  0  0  0  0  0  0  0  0  0  0
  -13.5000  -10.3923    0.0000 C   0  0  0  0  0  0  0  0  0  0  0  0
  -11.4510   -9.8433    0.0000 O   0  0  0  0  0  0  0  0  0  0  0  0
  -14.0490   -8.3433    0.0000 O   0  0  0  0  0  0  0  0  0  0  0  0
   -1.5000   -2.5981    0.0000 C   0  0  0  0  0  0  0  0  0  0  0  0
   -0.7500   -1.2990    0.0000 C   0  0  0  0  0  0  0  0  0  0  0  0
    3.7500   -1.2990    0.0000 C   0  0  0  0  0  0  0  0  0  0  0  0
  1  2  3  0
  2  3  1  0
  3  4  2  0
  4  5  1  0
  5  6  2  0
  6  7  1  0
  7  8  1  0
  8  9  1  0
  9 10  2  0
 10 11  1  0
 11 12  2  0
 12 13  1  0
 13 14  2  0
 14 15  1  0
 15 16  2  0
 16 17  1  0
 17 18  1  0
 18 19  1  0
 19 20  1  0
 20 21  1  0
 21 22  1  0
 22 23  1  0
 23 24  1  0
 24 25  1  0
 25 26  1  0
 25 27  2  0
 25 28  2  0
 16 29  1  0
 29 30  2  0
  7 31  2  0
 31  3  1  0
 30  9  1  0
 30 13  1  0
M  END
>  <Compound_ID>  (681) 
CHEMBL517907

>  <Molecule Name>  (681) 
GW680191X

>  <Molecular Weight>  (681) 
438.55

>  <AlogP>  (681) 
3.15

>  <Smiles>  (681) 
C#Cc1cccc(Nc2ncnc3ccc(OCCCCNCCS(C)(=O)=O)cc23)c1

>  <Standard Type>  (681) 
Inhibition

>  <Standard Relation>  (681) 
'='

>  <Standard Units>  (681) 
%

>  <Standard Value>  (681) 
1.9

>  <Assay ChEMBL ID>  (681) 
CHEMBL1962185

>  <Assay Description>  (681) 
GSK_PKIS: TRKA mean inhibition at 1 uM [Nanosyn]

>  <BAO Format ID>  (681) 
BAO_0000357

>  <BAO Label>  (681) 
single protein format

>  <Assay Organism>  (681) 
None

>  <Target ChEMBL ID>  (681) 
CHEMBL2815

>  <Target Name>  (681) 
Nerve growth factor receptor Trk-A

>  <Target Organism>  (681) 
Homo sapiens

>  <Target Type>  (681) 
SINGLE PROTEIN

>  <Document ChEMBL ID>  (681) 
CHEMBL1961873

>  <Source Description>  (681) 
GSK Published Kinase Inhibitor Set

>  <Document Journal>  (681) 
nan

>  <Document Year>  (681) 
nan

>  <Active>  (681) 
0.0

>  <bits>  (681) 
<rdkit.DataStructs.cDataStructs.ExplicitBitVect object at 0x00000159F540F760>

>  <Group>  (681) 
G2

$$$$

     RDKit          2D

 23 26  0  0  0  0  0  0  0  0999 V2000
   -8.0346   -3.5760    0.0000 N   0  0  0  0  0  0  0  0  0  0  0  0
   -6.9199   -4.5797    0.0000 C   0  0  0  0  0  0  0  0  0  0  0  0
   -5.4933   -4.1162    0.0000 C   0  0  0  0  0  0  0  0  0  0  0  0
   -5.1814   -2.6490    0.0000 C   0  0  0  0  0  0  0  0  0  0  0  0
   -3.7548   -2.1855    0.0000 C   0  0  0  0  0  0  0  0  0  0  0  0
   -2.6401   -3.1891    0.0000 C   0  0  0  0  0  0  0  0  0  0  0  0
   -1.2135   -2.7256    0.0000 N   0  0  0  0  0  0  0  0  0  0  0  0
   -0.0000   -3.6073    0.0000 C   0  0  0  0  0  0  0  0  0  0  0  0
   -0.0000   -5.1073    0.0000 C   0  0  0  0  0  0  0  0  0  0  0  0
    1.2135   -5.9890    0.0000 N   0  0  0  0  0  0  0  0  0  0  0  0
    0.7500   -7.4156    0.0000 O   0  0  0  0  0  0  0  0  0  0  0  0
   -0.7500   -7.4156    0.0000 N   0  0  0  0  0  0  0  0  0  0  0  0
   -1.2135   -5.9890    0.0000 C   0  0  0  0  0  0  0  0  0  0  0  0
   -2.6401   -5.5255    0.0000 N   0  0  0  0  0  0  0  0  0  0  0  0
    1.2135   -2.7256    0.0000 N   0  0  0  0  0  0  0  0  0  0  0  0
    0.7500   -1.2990    0.0000 C   0  0  0  0  0  0  0  0  0  0  0  0
    1.5000    0.0000    0.0000 C   0  0  0  0  0  0  0  0  0  0  0  0
    0.7500    1.2990    0.0000 N   0  0  0  0  0  0  0  0  0  0  0  0
   -0.7500    1.2990    0.0000 C   0  0  0  0  0  0  0  0  0  0  0  0
   -1.5000    0.0000    0.0000 C   0  0  0  0  0  0  0  0  0  0  0  0
   -0.7500   -1.2990    0.0000 C   0  0  0  0  0  0  0  0  0  0  0  0
   -2.9520   -4.6564    0.0000 C   0  0  0  0  0  0  0  0  0  0  0  0
   -4.3786   -5.1199    0.0000 C   0  0  0  0  0  0  0  0  0  0  0  0
  1  2  1  0
  2  3  1  0
  3  4  2  0
  4  5  1  0
  5  6  2  0
  6  7  1  0
  7  8  1  0
  8  9  1  0
  9 10  2  0
 10 11  1  0
 11 12  1  0
 12 13  2  0
 13 14  1  0
  8 15  2  0
 15 16  1  0
 16 17  2  0
 17 18  1  0
 18 19  2  0
 19 20  1  0
 20 21  2  0
  6 22  1  0
 22 23  2  0
 23  3  1  0
 21  7  1  0
 13  9  1  0
 21 16  1  0
M  END
>  <Compound_ID>  (682) 
CHEMBL188268

>  <Molecule Name>  (682) 
nan

>  <Molecular Weight>  (682) 
307.32

>  <AlogP>  (682) 
1.51

>  <Smiles>  (682) 
NCc1ccc(-n2c(-c3nonc3N)nc3cnccc32)cc1

>  <Standard Type>  (682) 
Inhibition

>  <Standard Relation>  (682) 
'='

>  <Standard Units>  (682) 
%

>  <Standard Value>  (682) 
1.82

>  <Assay ChEMBL ID>  (682) 
CHEMBL1962184

>  <Assay Description>  (682) 
GSK_PKIS: TRKA mean inhibition at 0.1 uM [Nanosyn]

>  <BAO Format ID>  (682) 
BAO_0000357

>  <BAO Label>  (682) 
single protein format

>  <Assay Organism>  (682) 
None

>  <Target ChEMBL ID>  (682) 
CHEMBL2815

>  <Target Name>  (682) 
Nerve growth factor receptor Trk-A

>  <Target Organism>  (682) 
Homo sapiens

>  <Target Type>  (682) 
SINGLE PROTEIN

>  <Document ChEMBL ID>  (682) 
CHEMBL1961873

>  <Source Description>  (682) 
GSK Published Kinase Inhibitor Set

>  <Document Journal>  (682) 
nan

>  <Document Year>  (682) 
nan

>  <Active>  (682) 
0.0

>  <bits>  (682) 
<rdkit.DataStructs.cDataStructs.ExplicitBitVect object at 0x00000159F540D700>

>  <Group>  (682) 
G2

$$$$

     RDKit          2D

 28 31  0  0  0  0  0  0  0  0999 V2000
    6.0000   -0.0000    0.0000 C   0  0  0  0  0  0  0  0  0  0  0  0
    5.2500   -1.2990    0.0000 C   0  0  0  0  0  0  0  0  0  0  0  0
    6.0000   -2.5981    0.0000 C   0  0  0  0  0  0  0  0  0  0  0  0
    5.2500   -3.8971    0.0000 C   0  0  0  0  0  0  0  0  0  0  0  0
    3.7500   -3.8971    0.0000 C   0  0  0  0  0  0  0  0  0  0  0  0
    3.0000   -2.5981    0.0000 C   0  0  0  0  0  0  0  0  0  0  0  0
    1.5000   -2.5981    0.0000 N   0  0  0  0  0  0  0  0  0  0  0  0
    0.7500   -1.2990    0.0000 C   0  0  0  0  0  0  0  0  0  0  0  0
    1.5000    0.0000    0.0000 N   0  0  0  0  0  0  0  0  0  0  0  0
    0.7500    1.2990    0.0000 C   0  0  0  0  0  0  0  0  0  0  0  0
   -0.7500    1.2990    0.0000 C   0  0  0  0  0  0  0  0  0  0  0  0
   -1.5000    0.0000    0.0000 C   0  0  0  0  0  0  0  0  0  0  0  0
   -0.7500   -1.2990    0.0000 C   0  0  0  0  0  0  0  0  0  0  0  0
   -1.5000   -2.5981    0.0000 C   0  0  0  0  0  0  0  0  0  0  0  0
   -3.0000   -2.5981    0.0000 N   0  0  0  0  0  0  0  0  0  0  0  0
   -3.7500   -3.8971    0.0000 C   0  0  0  0  0  0  0  0  0  0  0  0
   -3.0000   -5.1962    0.0000 O   0  0  0  0  0  0  0  0  0  0  0  0
   -5.2500   -3.8971    0.0000 C   0  0  0  0  0  0  0  0  0  0  0  0
   -6.1317   -5.1106    0.0000 C   0  0  0  0  0  0  0  0  0  0  0  0
   -7.5583   -4.6471    0.0000 C   0  0  0  0  0  0  0  0  0  0  0  0
   -8.7718   -5.5288    0.0000 C   0  0  0  0  0  0  0  0  0  0  0  0
   -7.5583   -3.1471    0.0000 N   0  0  0  0  0  0  0  0  0  0  0  0
   -8.7718   -2.2654    0.0000 C   0  0  0  0  0  0  0  0  0  0  0  0
   -6.1317   -2.6836    0.0000 C   0  0  0  0  0  0  0  0  0  0  0  0
   -5.6682   -1.2570    0.0000 C   0  0  0  0  0  0  0  0  0  0  0  0
   -3.7500   -1.2990    0.0000 C   0  0  0  0  0  0  0  0  0  0  0  0
   -3.0000    0.0000    0.0000 C   0  0  0  0  0  0  0  0  0  0  0  0
    3.7500   -1.2990    0.0000 C   0  0  0  0  0  0  0  0  0  0  0  0
  1  2  1  0
  2  3  2  0
  3  4  1  0
  4  5  2  0
  5  6  1  0
  6  7  1  0
  7  8  1  0
  8  9  2  0
  9 10  1  0
 10 11  2  0
 11 12  1  0
 12 13  2  0
 13 14  1  0
 14 15  1  0
 15 16  1  0
 16 17  2  0
 16 18  1  0
 18 19  1  0
 19 20  2  0
 20 21  1  0
 20 22  1  0
 22 23  1  0
 22 24  1  0
 24 25  1  0
 15 26  1  0
 26 27  1  0
  6 28  2  0
 28  2  1  0
 13  8  1  0
 24 18  2  0
 27 12  1  0
M  END
>  <Compound_ID>  (683) 
CHEMBL519146

>  <Molecule Name>  (683) 
nan

>  <Molecular Weight>  (683) 
374.49

>  <AlogP>  (683) 
4.29

>  <Smiles>  (683) 
Cc1cccc(Nc2nccc3c2CN(C(=O)c2cc(C)n(C)c2C)CC3)c1

>  <Standard Type>  (683) 
Inhibition

>  <Standard Relation>  (683) 
'='

>  <Standard Units>  (683) 
%

>  <Standard Value>  (683) 
4.0

>  <Assay ChEMBL ID>  (683) 
CHEMBL965679

>  <Assay Description>  (683) 
Inhibition of TrkA at 10 uM by HTRF assay relative to control

>  <BAO Format ID>  (683) 
BAO_0000357

>  <BAO Label>  (683) 
single protein format

>  <Assay Organism>  (683) 
None

>  <Target ChEMBL ID>  (683) 
CHEMBL2815

>  <Target Name>  (683) 
Nerve growth factor receptor Trk-A

>  <Target Organism>  (683) 
Homo sapiens

>  <Target Type>  (683) 
SINGLE PROTEIN

>  <Document ChEMBL ID>  (683) 
CHEMBL1150387

>  <Source Description>  (683) 
Scientific Literature

>  <Document Journal>  (683) 
J Med Chem

>  <Document Year>  (683) 
2008.0

>  <Active>  (683) 
0.0

>  <bits>  (683) 
<rdkit.DataStructs.cDataStructs.ExplicitBitVect object at 0x00000159F540EEA0>

>  <Group>  (683) 
G2

$$$$

     RDKit          2D

 33 37  0  0  0  0  0  0  0  0999 V2000
   -5.6260  -10.9888    0.0000 C   0  0  0  0  0  0  0  0  0  0  0  0
   -7.0526  -11.4523    0.0000 C   0  0  0  0  0  0  0  0  0  0  0  0
   -7.3645  -12.9195    0.0000 C   0  0  0  0  0  0  0  0  0  0  0  0
   -8.7911  -13.3831    0.0000 C   0  0  0  0  0  0  0  0  0  0  0  0
   -9.9058  -12.3794    0.0000 C   0  0  0  0  0  0  0  0  0  0  0  0
   -9.5939  -10.9121    0.0000 C   0  0  0  0  0  0  0  0  0  0  0  0
  -10.7086   -9.9084    0.0000 N   0  0  0  0  0  0  0  0  0  0  0  0
  -12.1352  -10.3720    0.0000 C   0  0  0  0  0  0  0  0  0  0  0  0
  -10.3968   -8.4412    0.0000 C   0  0  0  0  0  0  0  0  0  0  0  0
   -8.9702   -7.9777    0.0000 C   0  0  0  0  0  0  0  0  0  0  0  0
   -8.6583   -6.5105    0.0000 C   0  0  0  0  0  0  0  0  0  0  0  0
   -7.2317   -6.0469    0.0000 N   0  0  0  0  0  0  0  0  0  0  0  0
   -6.1170   -7.0506    0.0000 C   0  0  0  0  0  0  0  0  0  0  0  0
   -4.6904   -6.5871    0.0000 C   0  0  0  0  0  0  0  0  0  0  0  0
   -4.3786   -5.1199    0.0000 N   0  0  0  0  0  0  0  0  0  0  0  0
   -2.9520   -4.6564    0.0000 C   0  0  0  0  0  0  0  0  0  0  0  0
   -1.8373   -5.6601    0.0000 O   0  0  0  0  0  0  0  0  0  0  0  0
   -2.6401   -3.1891    0.0000 C   0  0  0  0  0  0  0  0  0  0  0  0
   -1.2135   -2.7256    0.0000 C   0  0  0  0  0  0  0  0  0  0  0  0
   -0.0000   -3.6073    0.0000 C   0  0  0  0  0  0  0  0  0  0  0  0
    1.2135   -2.7256    0.0000 N   0  0  0  0  0  0  0  0  0  0  0  0
    0.7500   -1.2990    0.0000 C   0  0  0  0  0  0  0  0  0  0  0  0
    1.5000    0.0000    0.0000 C   0  0  0  0  0  0  0  0  0  0  0  0
    0.7500    1.2990    0.0000 C   0  0  0  0  0  0  0  0  0  0  0  0
   -0.7500    1.2990    0.0000 C   0  0  0  0  0  0  0  0  0  0  0  0
   -1.5000    0.0000    0.0000 C   0  0  0  0  0  0  0  0  0  0  0  0
   -0.7500   -1.2990    0.0000 C   0  0  0  0  0  0  0  0  0  0  0  0
   -5.4933   -4.1162    0.0000 C   0  0  0  0  0  0  0  0  0  0  0  0
   -6.9199   -4.5797    0.0000 C   0  0  0  0  0  0  0  0  0  0  0  0
   -9.7730   -5.5068    0.0000 N   0  0  0  0  0  0  0  0  0  0  0  0
  -11.1996   -5.9703    0.0000 C   0  0  0  0  0  0  0  0  0  0  0  0
  -11.5115   -7.4375    0.0000 N   0  0  0  0  0  0  0  0  0  0  0  0
   -8.1673  -10.4486    0.0000 C   0  0  0  0  0  0  0  0  0  0  0  0
  1  2  1  0
  2  3  2  0
  3  4  1  0
  4  5  2  0
  5  6  1  0
  6  7  1  0
  7  8  1  0
  7  9  1  0
  9 10  2  0
 10 11  1  0
 11 12  1  0
 12 13  1  0
 13 14  1  0
 14 15  1  0
 15 16  1  0
 16 17  2  0
 16 18  1  0
 18 19  1  0
 19 20  2  0
 20 21  1  0
 21 22  1  0
 22 23  2  0
 23 24  1  0
 24 25  2  0
 25 26  1  0
 26 27  2  0
 15 28  1  0
 28 29  1  0
 11 30  2  0
 30 31  1  0
 31 32  2  0
  6 33  2  0
 33  2  1  0
 32  9  1  0
 29 12  1  0
 27 19  1  0
 27 22  1  0
M  END
>  <Compound_ID>  (684) 
CHEMBL524898

>  <Molecule Name>  (684) 
nan

>  <Molecular Weight>  (684) 
440.55

>  <AlogP>  (684) 
3.93

>  <Smiles>  (684) 
Cc1cccc(N(C)c2cc(N3CCN(C(=O)Cc4c[nH]c5ccccc45)CC3)ncn2)c1

>  <Standard Type>  (684) 
Inhibition

>  <Standard Relation>  (684) 
'='

>  <Standard Units>  (684) 
%

>  <Standard Value>  (684) 
2.0

>  <Assay ChEMBL ID>  (684) 
CHEMBL965679

>  <Assay Description>  (684) 
Inhibition of TrkA at 10 uM by HTRF assay relative to control

>  <BAO Format ID>  (684) 
BAO_0000357

>  <BAO Label>  (684) 
single protein format

>  <Assay Organism>  (684) 
None

>  <Target ChEMBL ID>  (684) 
CHEMBL2815

>  <Target Name>  (684) 
Nerve growth factor receptor Trk-A

>  <Target Organism>  (684) 
Homo sapiens

>  <Target Type>  (684) 
SINGLE PROTEIN

>  <Document ChEMBL ID>  (684) 
CHEMBL1150387

>  <Source Description>  (684) 
Scientific Literature

>  <Document Journal>  (684) 
J Med Chem

>  <Document Year>  (684) 
2008.0

>  <Active>  (684) 
0.0

>  <bits>  (684) 
<rdkit.DataStructs.cDataStructs.ExplicitBitVect object at 0x00000159F540F5A0>

>  <Group>  (684) 
G2

$$$$

     RDKit          2D

 26 29  0  0  0  0  0  0  0  0999 V2000
    4.8308   -6.3240    0.0000 C   0  0  0  0  0  0  0  0  0  0  0  0
    4.6740   -4.8322    0.0000 C   0  0  0  0  0  0  0  0  0  0  0  0
    3.3037   -4.2221    0.0000 C   0  0  0  0  0  0  0  0  0  0  0  0
    2.9918   -2.7549    0.0000 N   0  0  0  0  0  0  0  0  0  0  0  0
    1.5000   -2.5981    0.0000 C   0  0  0  0  0  0  0  0  0  0  0  0
    0.7500   -1.2990    0.0000 C   0  0  0  0  0  0  0  0  0  0  0  0
    1.5000    0.0000    0.0000 C   0  0  0  0  0  0  0  0  0  0  0  0
    0.7500    1.2990    0.0000 C   0  0  0  0  0  0  0  0  0  0  0  0
   -0.7500    1.2990    0.0000 C   0  0  0  0  0  0  0  0  0  0  0  0
   -1.5000    2.5981    0.0000 F   0  0  0  0  0  0  0  0  0  0  0  0
   -1.5000    0.0000    0.0000 C   0  0  0  0  0  0  0  0  0  0  0  0
   -0.7500   -1.2990    0.0000 C   0  0  0  0  0  0  0  0  0  0  0  0
    0.8899   -3.9684    0.0000 C   0  0  0  0  0  0  0  0  0  0  0  0
   -0.5773   -4.2803    0.0000 C   0  0  0  0  0  0  0  0  0  0  0  0
   -1.5810   -3.1655    0.0000 C   0  0  0  0  0  0  0  0  0  0  0  0
   -3.0482   -3.4774    0.0000 C   0  0  0  0  0  0  0  0  0  0  0  0
   -3.5118   -4.9040    0.0000 N   0  0  0  0  0  0  0  0  0  0  0  0
   -2.5081   -6.0187    0.0000 C   0  0  0  0  0  0  0  0  0  0  0  0
   -2.9716   -7.4453    0.0000 N   0  0  0  0  0  0  0  0  0  0  0  0
   -4.4388   -7.7572    0.0000 C   0  0  0  0  0  0  0  0  0  0  0  0
   -5.4425   -6.6424    0.0000 O   0  0  0  0  0  0  0  0  0  0  0  0
   -4.9023   -9.1838    0.0000 C   0  0  0  0  0  0  0  0  0  0  0  0
   -4.5905  -10.6510    0.0000 C   0  0  0  0  0  0  0  0  0  0  0  0
   -6.0171  -10.1874    0.0000 C   0  0  0  0  0  0  0  0  0  0  0  0
   -1.0409   -5.7068    0.0000 C   0  0  0  0  0  0  0  0  0  0  0  0
    2.0046   -4.9721    0.0000 N   0  0  0  0  0  0  0  0  0  0  0  0
  1  2  1  0
  2  3  1  0
  3  4  2  0
  4  5  1  0
  5  6  1  0
  6  7  2  0
  7  8  1  0
  8  9  2  0
  9 10  1  0
  9 11  1  0
 11 12  2  0
  5 13  2  0
 13 14  1  0
 14 15  2  0
 15 16  1  0
 16 17  2  0
 17 18  1  0
 18 19  1  0
 19 20  1  0
 20 21  2  0
 20 22  1  0
 22 23  1  0
 23 24  1  0
 18 25  2  0
 13 26  1  0
 26  3  1  0
 12  6  1  0
 25 14  1  0
 24 22  1  0
M  END
>  <Compound_ID>  (685) 
CHEMBL4536012

>  <Molecule Name>  (685) 
nan

>  <Molecular Weight>  (685) 
350.4

>  <AlogP>  (685) 
4.19

>  <Smiles>  (685) 
CCc1nc(-c2ccc(F)cc2)c(-c2ccnc(NC(=O)C3CC3)c2)[nH]1

>  <Standard Type>  (685) 
Inhibition

>  <Standard Relation>  (685) 
'='

>  <Standard Units>  (685) 
%

>  <Standard Value>  (685) 
10.6

>  <Assay ChEMBL ID>  (685) 
CHEMBL4395913

>  <Assay Description>  (685) 
Inhibition of human recombinant TRKA at 1 uM using Ulight-Poly GAT[EAY(1:1:1)]n as substrate measured after 10 mins in presence of ATP by LANCE assay relative to control

>  <BAO Format ID>  (685) 
BAO_0000357

>  <BAO Label>  (685) 
single protein format

>  <Assay Organism>  (685) 
Homo sapiens

>  <Target ChEMBL ID>  (685) 
CHEMBL2815

>  <Target Name>  (685) 
Nerve growth factor receptor Trk-A

>  <Target Organism>  (685) 
Homo sapiens

>  <Target Type>  (685) 
SINGLE PROTEIN

>  <Document ChEMBL ID>  (685) 
CHEMBL4393708

>  <Source Description>  (685) 
Scientific Literature

>  <Document Journal>  (685) 
Eur J Med Chem

>  <Document Year>  (685) 
2019.0

>  <Active>  (685) 
0.0

>  <bits>  (685) 
<rdkit.DataStructs.cDataStructs.ExplicitBitVect object at 0x00000159F540F990>

>  <Group>  (685) 
G2

$$$$

     RDKit          2D

 29 32  0  0  0  0  0  0  0  0999 V2000
   -7.0526  -11.4523    0.0000 C   0  0  0  0  0  0  0  0  0  0  0  0
   -5.6260  -10.9888    0.0000 C   0  0  0  0  0  0  0  0  0  0  0  0
   -5.3142   -9.5216    0.0000 N   0  0  0  0  0  0  0  0  0  0  0  0
   -6.4289   -8.5179    0.0000 C   0  0  0  0  0  0  0  0  0  0  0  0
   -6.1170   -7.0506    0.0000 C   0  0  0  0  0  0  0  0  0  0  0  0
   -4.6904   -6.5871    0.0000 C   0  0  0  0  0  0  0  0  0  0  0  0
   -4.3786   -5.1199    0.0000 C   0  0  0  0  0  0  0  0  0  0  0  0
   -2.9520   -4.6564    0.0000 C   0  0  0  0  0  0  0  0  0  0  0  0
   -1.8373   -5.6601    0.0000 O   0  0  0  0  0  0  0  0  0  0  0  0
   -2.6401   -3.1891    0.0000 N   0  0  0  0  0  0  0  0  0  0  0  0
   -1.2135   -2.7256    0.0000 C   0  0  0  0  0  0  0  0  0  0  0  0
   -0.0000   -3.6073    0.0000 N   0  0  0  0  0  0  0  0  0  0  0  0
    1.2135   -2.7256    0.0000 N   0  0  0  0  0  0  0  0  0  0  0  0
    0.7500   -1.2990    0.0000 C   0  0  0  0  0  0  0  0  0  0  0  0
    1.5000    0.0000    0.0000 N   0  0  0  0  0  0  0  0  0  0  0  0
    0.7500    1.2990    0.0000 N   0  0  0  0  0  0  0  0  0  0  0  0
   -0.7500    1.2990    0.0000 C   0  0  0  0  0  0  0  0  0  0  0  0
   -1.5000    2.5981    0.0000 C   0  0  0  0  0  0  0  0  0  0  0  0
   -0.7500    3.8971    0.0000 C   0  0  0  0  0  0  0  0  0  0  0  0
   -1.5000    5.1962    0.0000 C   0  0  0  0  0  0  0  0  0  0  0  0
   -3.0000    5.1962    0.0000 C   0  0  0  0  0  0  0  0  0  0  0  0
   -3.7500    3.8971    0.0000 C   0  0  0  0  0  0  0  0  0  0  0  0
   -5.2500    3.8971    0.0000 F   0  0  0  0  0  0  0  0  0  0  0  0
   -3.0000    2.5981    0.0000 C   0  0  0  0  0  0  0  0  0  0  0  0
   -3.7500    1.2990    0.0000 F   0  0  0  0  0  0  0  0  0  0  0  0
   -1.5000    0.0000    0.0000 C   0  0  0  0  0  0  0  0  0  0  0  0
   -0.7500   -1.2990    0.0000 C   0  0  0  0  0  0  0  0  0  0  0  0
   -3.5757   -7.5908    0.0000 C   0  0  0  0  0  0  0  0  0  0  0  0
   -3.8876   -9.0580    0.0000 C   0  0  0  0  0  0  0  0  0  0  0  0
  1  2  1  0
  2  3  1  0
  3  4  1  0
  4  5  1  0
  5  6  1  0
  6  7  1  0
  7  8  1  0
  8  9  2  0
  8 10  1  0
 10 11  1  0
 11 12  2  0
 12 13  1  0
 13 14  1  0
 14 15  2  0
 15 16  1  0
 16 17  2  0
 17 18  1  0
 18 19  2  0
 19 20  1  0
 20 21  2  0
 21 22  1  0
 22 23  1  0
 22 24  2  0
 24 25  1  0
 17 26  1  0
 26 27  2  0
  6 28  1  0
 28 29  1  0
 29  3  1  0
 27 11  1  0
 27 14  1  0
 24 18  1  0
M  END
>  <Compound_ID>  (686) 
CHEMBL2062289

>  <Molecule Name>  (686) 
nan

>  <Molecular Weight>  (686) 
550.52

>  <AlogP>  (686) 
3.36

>  <Smiles>  (686) 
CCN1CCC(CC(=O)Nc2n[nH]c3nnc(-c4cccc(F)c4F)cc23)CC1

>  <Standard Type>  (686) 
Inhibition

>  <Standard Relation>  (686) 
'='

>  <Standard Units>  (686) 
%

>  <Standard Value>  (686) 
-1.1

>  <Assay ChEMBL ID>  (686) 
CHEMBL1962184

>  <Assay Description>  (686) 
GSK_PKIS: TRKA mean inhibition at 0.1 uM [Nanosyn]

>  <BAO Format ID>  (686) 
BAO_0000357

>  <BAO Label>  (686) 
single protein format

>  <Assay Organism>  (686) 
None

>  <Target ChEMBL ID>  (686) 
CHEMBL2815

>  <Target Name>  (686) 
Nerve growth factor receptor Trk-A

>  <Target Organism>  (686) 
Homo sapiens

>  <Target Type>  (686) 
SINGLE PROTEIN

>  <Document ChEMBL ID>  (686) 
CHEMBL1961873

>  <Source Description>  (686) 
GSK Published Kinase Inhibitor Set

>  <Document Journal>  (686) 
nan

>  <Document Year>  (686) 
nan

>  <Active>  (686) 
0.0

>  <bits>  (686) 
<rdkit.DataStructs.cDataStructs.ExplicitBitVect object at 0x00000159F540D690>

>  <Group>  (686) 
G2

$$$$

     RDKit          2D

 23 27  0  0  0  0  0  0  0  0999 V2000
    5.1707    3.5118    0.0000 C   0  0  0  0  0  0  0  0  0  0  0  0
    3.8717    2.7618    0.0000 C   0  0  0  0  0  0  0  0  0  0  0  0
    2.5727    3.5118    0.0000 C   0  0  0  0  0  0  0  0  0  0  0  0
    2.5727    5.0118    0.0000 C   0  0  0  0  0  0  0  0  0  0  0  0
    1.2736    5.7618    0.0000 C   0  0  0  0  0  0  0  0  0  0  0  0
    1.1168    7.2536    0.0000 N   0  0  0  0  0  0  0  0  0  0  0  0
   -0.3504    7.5654    0.0000 C   0  0  0  0  0  0  0  0  0  0  0  0
   -1.1004    6.2664    0.0000 N   0  0  0  0  0  0  0  0  0  0  0  0
   -0.0967    5.1517    0.0000 C   0  0  0  0  0  0  0  0  0  0  0  0
   -0.4086    3.6844    0.0000 C   0  0  0  0  0  0  0  0  0  0  0  0
   -1.8351    3.2209    0.0000 C   0  0  0  0  0  0  0  0  0  0  0  0
   -2.1470    1.7537    0.0000 C   0  0  0  0  0  0  0  0  0  0  0  0
   -1.0323    0.7500    0.0000 C   0  0  0  0  0  0  0  0  0  0  0  0
    0.3943    1.2135    0.0000 C   0  0  0  0  0  0  0  0  0  0  0  0
    0.7062    2.6807    0.0000 C   0  0  0  0  0  0  0  0  0  0  0  0
    1.2760    0.0000    0.0000 O   0  0  0  0  0  0  0  0  0  0  0  0
    0.3943   -1.2135    0.0000 C   0  0  0  0  0  0  0  0  0  0  0  0
   -1.0323   -0.7500    0.0000 O   0  0  0  0  0  0  0  0  0  0  0  0
   -2.5676    6.5782    0.0000 C   0  0  0  0  0  0  0  0  0  0  0  0
   -2.7244    8.0700    0.0000 C   0  0  0  0  0  0  0  0  0  0  0  0
   -1.3541    8.6801    0.0000 C   0  0  0  0  0  0  0  0  0  0  0  0
    3.8717    5.7618    0.0000 N   0  0  0  0  0  0  0  0  0  0  0  0
    5.1707    5.0118    0.0000 C   0  0  0  0  0  0  0  0  0  0  0  0
  1  2  2  0
  2  3  1  0
  3  4  2  0
  4  5  1  0
  5  6  1  0
  6  7  2  0
  7  8  1  0
  8  9  1  0
  9 10  1  0
 10 11  2  0
 11 12  1  0
 12 13  2  0
 13 14  1  0
 14 15  2  0
 14 16  1  0
 16 17  1  0
 17 18  1  0
  8 19  1  0
 19 20  1  0
 20 21  1  0
  4 22  1  0
 22 23  2  0
 23  1  1  0
  9  5  2  0
 15 10  1  0
 21  7  1  0
 18 13  1  0
M  END
>  <Compound_ID>  (687) 
CHEMBL1909377

>  <Molecule Name>  (687) 
nan

>  <Molecular Weight>  (687) 
341.8

>  <AlogP>  (687) 
3.29

>  <Smiles>  (687) 
c1ccc(-c2nc3n(c2-c2ccc4c(c2)OCO4)CCC3)nc1

>  <Standard Type>  (687) 
Inhibition

>  <Standard Relation>  (687) 
'='

>  <Standard Units>  (687) 
%

>  <Standard Value>  (687) 
1.9

>  <Assay ChEMBL ID>  (687) 
CHEMBL1962184

>  <Assay Description>  (687) 
GSK_PKIS: TRKA mean inhibition at 0.1 uM [Nanosyn]

>  <BAO Format ID>  (687) 
BAO_0000357

>  <BAO Label>  (687) 
single protein format

>  <Assay Organism>  (687) 
None

>  <Target ChEMBL ID>  (687) 
CHEMBL2815

>  <Target Name>  (687) 
Nerve growth factor receptor Trk-A

>  <Target Organism>  (687) 
Homo sapiens

>  <Target Type>  (687) 
SINGLE PROTEIN

>  <Document ChEMBL ID>  (687) 
CHEMBL1961873

>  <Source Description>  (687) 
GSK Published Kinase Inhibitor Set

>  <Document Journal>  (687) 
nan

>  <Document Year>  (687) 
nan

>  <Active>  (687) 
0.0

>  <bits>  (687) 
<rdkit.DataStructs.cDataStructs.ExplicitBitVect object at 0x00000159F540DC40>

>  <Group>  (687) 
G2

$$$$

     RDKit          2D

 39 43  0  0  0  0  0  0  0  0999 V2000
  -11.4711  -10.1522    0.0000 C   0  0  0  0  0  0  0  0  0  0  0  0
  -10.8609   -8.7818    0.0000 S   0  0  0  0  0  0  0  0  0  0  0  0
   -9.4906   -9.3919    0.0000 O   0  0  0  0  0  0  0  0  0  0  0  0
  -12.2313   -8.1717    0.0000 O   0  0  0  0  0  0  0  0  0  0  0  0
  -10.2508   -7.4115    0.0000 C   0  0  0  0  0  0  0  0  0  0  0  0
   -8.7591   -7.2547    0.0000 C   0  0  0  0  0  0  0  0  0  0  0  0
   -8.1490   -5.8844    0.0000 N   0  0  0  0  0  0  0  0  0  0  0  0
   -6.6572   -5.7276    0.0000 C   0  0  0  0  0  0  0  0  0  0  0  0
   -6.0471   -4.3573    0.0000 C   0  0  0  0  0  0  0  0  0  0  0  0
   -4.5798   -4.0454    0.0000 C   0  0  0  0  0  0  0  0  0  0  0  0
   -4.4231   -2.5537    0.0000 C   0  0  0  0  0  0  0  0  0  0  0  0
   -3.1240   -1.8037    0.0000 C   0  0  0  0  0  0  0  0  0  0  0  0
   -1.7537   -2.4138    0.0000 C   0  0  0  0  0  0  0  0  0  0  0  0
   -0.7500   -1.2990    0.0000 C   0  0  0  0  0  0  0  0  0  0  0  0
    0.7500   -1.2990    0.0000 C   0  0  0  0  0  0  0  0  0  0  0  0
    1.5000   -2.5981    0.0000 N   0  0  0  0  0  0  0  0  0  0  0  0
    3.0000   -2.5981    0.0000 C   0  0  0  0  0  0  0  0  0  0  0  0
    3.7500   -3.8971    0.0000 C   0  0  0  0  0  0  0  0  0  0  0  0
    5.2500   -3.8971    0.0000 C   0  0  0  0  0  0  0  0  0  0  0  0
    6.0000   -2.5981    0.0000 C   0  0  0  0  0  0  0  0  0  0  0  0
    7.5000   -2.5981    0.0000 O   0  0  0  0  0  0  0  0  0  0  0  0
    8.2500   -3.8971    0.0000 C   0  0  0  0  0  0  0  0  0  0  0  0
    9.7500   -3.8971    0.0000 C   0  0  0  0  0  0  0  0  0  0  0  0
   10.5000   -5.1962    0.0000 C   0  0  0  0  0  0  0  0  0  0  0  0
   12.0000   -5.1962    0.0000 C   0  0  0  0  0  0  0  0  0  0  0  0
   12.7500   -3.8971    0.0000 C   0  0  0  0  0  0  0  0  0  0  0  0
   12.0000   -2.5981    0.0000 C   0  0  0  0  0  0  0  0  0  0  0  0
   12.7500   -1.2990    0.0000 F   0  0  0  0  0  0  0  0  0  0  0  0
   10.5000   -2.5981    0.0000 C   0  0  0  0  0  0  0  0  0  0  0  0
    5.2500   -1.2990    0.0000 C   0  0  0  0  0  0  0  0  0  0  0  0
    6.0000   -0.0000    0.0000 Cl  0  0  0  0  0  0  0  0  0  0  0  0
    3.7500   -1.2990    0.0000 C   0  0  0  0  0  0  0  0  0  0  0  0
    1.5000    0.0000    0.0000 N   0  0  0  0  0  0  0  0  0  0  0  0
    0.7500    1.2990    0.0000 C   0  0  0  0  0  0  0  0  0  0  0  0
   -0.7500    1.2990    0.0000 N   0  0  0  0  0  0  0  0  0  0  0  0
   -1.5000    0.0000    0.0000 C   0  0  0  0  0  0  0  0  0  0  0  0
   -2.9672   -0.3119    0.0000 S   0  0  0  0  0  0  0  0  0  0  0  0
   -5.7934   -1.9435    0.0000 C   0  0  0  0  0  0  0  0  0  0  0  0
   -6.7971   -3.0583    0.0000 S   0  0  0  0  0  0  0  0  0  0  0  0
  1  2  1  0
  2  3  2  0
  2  4  2  0
  2  5  1  0
  5  6  1  0
  6  7  1  0
  7  8  1  0
  8  9  1  0
  9 10  2  0
 10 11  1  0
 11 12  1  0
 12 13  2  0
 13 14  1  0
 14 15  2  0
 15 16  1  0
 16 17  1  0
 17 18  2  0
 18 19  1  0
 19 20  2  0
 20 21  1  0
 21 22  1  0
 22 23  1  0
 23 24  2  0
 24 25  1  0
 25 26  2  0
 26 27  1  0
 27 28  1  0
 27 29  2  0
 20 30  1  0
 30 31  1  0
 30 32  2  0
 15 33  1  0
 33 34  2  0
 34 35  1  0
 35 36  2  0
 36 37  1  0
 11 38  2  0
 38 39  1  0
 39  9  1  0
 37 12  1  0
 36 14  1  0
 32 17  1  0
 29 23  1  0
M  END
>  <Compound_ID>  (688) 
CHEMBL475599

>  <Molecule Name>  (688) 
GSK-300014A

>  <Molecular Weight>  (688) 
603.17

>  <AlogP>  (688) 
6.67

>  <Smiles>  (688) 
CS(=O)(=O)CCNCc1cc(-c2cc3c(Nc4ccc(OCc5cccc(F)c5)c(Cl)c4)ncnc3s2)cs1

>  <Standard Type>  (688) 
Inhibition

>  <Standard Relation>  (688) 
'='

>  <Standard Units>  (688) 
%

>  <Standard Value>  (688) 
2.34

>  <Assay ChEMBL ID>  (688) 
CHEMBL1962184

>  <Assay Description>  (688) 
GSK_PKIS: TRKA mean inhibition at 0.1 uM [Nanosyn]

>  <BAO Format ID>  (688) 
BAO_0000357

>  <BAO Label>  (688) 
single protein format

>  <Assay Organism>  (688) 
None

>  <Target ChEMBL ID>  (688) 
CHEMBL2815

>  <Target Name>  (688) 
Nerve growth factor receptor Trk-A

>  <Target Organism>  (688) 
Homo sapiens

>  <Target Type>  (688) 
SINGLE PROTEIN

>  <Document ChEMBL ID>  (688) 
CHEMBL1961873

>  <Source Description>  (688) 
GSK Published Kinase Inhibitor Set

>  <Document Journal>  (688) 
nan

>  <Document Year>  (688) 
nan

>  <Active>  (688) 
0.0

>  <bits>  (688) 
<rdkit.DataStructs.cDataStructs.ExplicitBitVect object at 0x00000159F540D540>

>  <Group>  (688) 
G2

$$$$

     RDKit          2D

 23 25  0  0  0  0  0  0  0  0999 V2000
    3.7500   -1.2990    0.0000 N   0  0  0  0  0  0  0  0  0  0  0  0
    3.0000    0.0000    0.0000 C   0  0  0  0  0  0  0  0  0  0  0  0
    3.7500    1.2990    0.0000 O   0  0  0  0  0  0  0  0  0  0  0  0
    1.5000    0.0000    0.0000 C   0  0  0  0  0  0  0  0  0  0  0  0
    0.7500   -1.2990    0.0000 C   0  0  0  0  0  0  0  0  0  0  0  0
   -0.7500   -1.2990    0.0000 C   0  0  0  0  0  0  0  0  0  0  0  0
   -1.5000   -2.5981    0.0000 C   0  0  0  0  0  0  0  0  0  0  0  0
   -3.0000   -2.5981    0.0000 C   0  0  0  0  0  0  0  0  0  0  0  0
   -3.7500   -3.8971    0.0000 C   0  0  0  0  0  0  0  0  0  0  0  0
   -3.0000   -5.1962    0.0000 C   0  0  0  0  0  0  0  0  0  0  0  0
   -3.7500   -6.4952    0.0000 F   0  0  0  0  0  0  0  0  0  0  0  0
   -1.5000   -5.1962    0.0000 C   0  0  0  0  0  0  0  0  0  0  0  0
   -0.7500   -3.8971    0.0000 C   0  0  0  0  0  0  0  0  0  0  0  0
   -1.5000    0.0000    0.0000 C   0  0  0  0  0  0  0  0  0  0  0  0
   -0.7500    1.2990    0.0000 C   0  0  0  0  0  0  0  0  0  0  0  0
   -1.5000    2.5981    0.0000 C   0  0  0  0  0  0  0  0  0  0  0  0
   -0.7500    3.8971    0.0000 C   0  0  0  0  0  0  0  0  0  0  0  0
   -1.5000    5.1962    0.0000 C   0  0  0  0  0  0  0  0  0  0  0  0
   -3.0000    5.1962    0.0000 N   0  0  0  0  0  0  0  0  0  0  0  0
   -3.7500    3.8971    0.0000 C   0  0  0  0  0  0  0  0  0  0  0  0
   -3.0000    2.5981    0.0000 C   0  0  0  0  0  0  0  0  0  0  0  0
    0.7500    1.2990    0.0000 C   0  0  0  0  0  0  0  0  0  0  0  0
    1.5000    2.5981    0.0000 N   0  0  0  0  0  0  0  0  0  0  0  0
  1  2  1  0
  2  3  2  0
  2  4  1  0
  4  5  2  0
  5  6  1  0
  6  7  1  0
  7  8  2  0
  8  9  1  0
  9 10  2  0
 10 11  1  0
 10 12  1  0
 12 13  2  0
  6 14  2  0
 14 15  1  0
 15 16  1  0
 16 17  2  0
 17 18  1  0
 18 19  2  0
 19 20  1  0
 20 21  2  0
 15 22  2  0
 22 23  1  0
 22  4  1  0
 13  7  1  0
 21 16  1  0
M  END
>  <Compound_ID>  (689) 
CHEMBL231623

>  <Molecule Name>  (689) 
GSK-620503A

>  <Molecular Weight>  (689) 
307.33

>  <AlogP>  (689) 
3.24

>  <Smiles>  (689) 
NC(=O)c1cc(-c2ccc(F)cc2)cc(-c2ccncc2)c1N

>  <Standard Type>  (689) 
Inhibition

>  <Standard Relation>  (689) 
'='

>  <Standard Units>  (689) 
%

>  <Standard Value>  (689) 
-0.4

>  <Assay ChEMBL ID>  (689) 
CHEMBL1962185

>  <Assay Description>  (689) 
GSK_PKIS: TRKA mean inhibition at 1 uM [Nanosyn]

>  <BAO Format ID>  (689) 
BAO_0000357

>  <BAO Label>  (689) 
single protein format

>  <Assay Organism>  (689) 
None

>  <Target ChEMBL ID>  (689) 
CHEMBL2815

>  <Target Name>  (689) 
Nerve growth factor receptor Trk-A

>  <Target Organism>  (689) 
Homo sapiens

>  <Target Type>  (689) 
SINGLE PROTEIN

>  <Document ChEMBL ID>  (689) 
CHEMBL1961873

>  <Source Description>  (689) 
GSK Published Kinase Inhibitor Set

>  <Document Journal>  (689) 
nan

>  <Document Year>  (689) 
nan

>  <Active>  (689) 
0.0

>  <bits>  (689) 
<rdkit.DataStructs.cDataStructs.ExplicitBitVect object at 0x00000159F540F680>

>  <Group>  (689) 
G2

$$$$

     RDKit          2D

 30 33  0  0  0  0  0  0  0  0999 V2000
    1.8478   -6.4639    0.0000 C   0  0  0  0  0  0  0  0  0  0  0  0
    2.0046   -4.9721    0.0000 C   0  0  0  0  0  0  0  0  0  0  0  0
    3.3037   -4.2221    0.0000 N   0  0  0  0  0  0  0  0  0  0  0  0
    2.9918   -2.7549    0.0000 N   0  0  0  0  0  0  0  0  0  0  0  0
    1.5000   -2.5981    0.0000 C   0  0  0  0  0  0  0  0  0  0  0  0
    0.7500   -1.2990    0.0000 C   0  0  0  0  0  0  0  0  0  0  0  0
    1.5000    0.0000    0.0000 C   0  0  0  0  0  0  0  0  0  0  0  0
    0.7500    1.2990    0.0000 C   0  0  0  0  0  0  0  0  0  0  0  0
   -0.7500    1.2990    0.0000 C   0  0  0  0  0  0  0  0  0  0  0  0
   -1.5000    2.5981    0.0000 C   0  0  0  0  0  0  0  0  0  0  0  0
   -1.5000    0.0000    0.0000 C   0  0  0  0  0  0  0  0  0  0  0  0
   -3.0000    0.0000    0.0000 C   0  0  0  0  0  0  0  0  0  0  0  0
   -3.7500    1.2990    0.0000 C   0  0  0  0  0  0  0  0  0  0  0  0
   -5.2500    1.2990    0.0000 C   0  0  0  0  0  0  0  0  0  0  0  0
   -6.0000    0.0000    0.0000 C   0  0  0  0  0  0  0  0  0  0  0  0
   -7.5000    0.0000    0.0000 C   0  0  0  0  0  0  0  0  0  0  0  0
   -8.2500   -1.2990    0.0000 O   0  0  0  0  0  0  0  0  0  0  0  0
   -8.2500    1.2990    0.0000 N   0  0  0  0  0  0  0  0  0  0  0  0
   -9.7500    1.2990    0.0000 C   0  0  0  0  0  0  0  0  0  0  0  0
  -10.5000    2.5981    0.0000 C   0  0  0  0  0  0  0  0  0  0  0  0
  -12.0000    2.5981    0.0000 C   0  0  0  0  0  0  0  0  0  0  0  0
  -12.7500    1.2990    0.0000 C   0  0  0  0  0  0  0  0  0  0  0  0
  -12.0000    0.0000    0.0000 C   0  0  0  0  0  0  0  0  0  0  0  0
  -12.7500   -1.2990    0.0000 C   0  0  0  0  0  0  0  0  0  0  0  0
  -13.5000   -2.5981    0.0000 N   0  0  0  0  0  0  0  0  0  0  0  0
  -10.5000    0.0000    0.0000 C   0  0  0  0  0  0  0  0  0  0  0  0
   -5.2500   -1.2990    0.0000 C   0  0  0  0  0  0  0  0  0  0  0  0
   -3.7500   -1.2990    0.0000 C   0  0  0  0  0  0  0  0  0  0  0  0
   -0.7500   -1.2990    0.0000 C   0  0  0  0  0  0  0  0  0  0  0  0
    0.8899   -3.9684    0.0000 O   0  0  0  0  0  0  0  0  0  0  0  0
  1  2  1  0
  2  3  2  0
  3  4  1  0
  4  5  2  0
  5  6  1  0
  6  7  2  0
  7  8  1  0
  8  9  2  0
  9 10  1  0
  9 11  1  0
 11 12  1  0
 12 13  2  0
 13 14  1  0
 14 15  2  0
 15 16  1  0
 16 17  2  0
 16 18  1  0
 18 19  1  0
 19 20  2  0
 20 21  1  0
 21 22  2  0
 22 23  1  0
 23 24  1  0
 24 25  3  0
 23 26  2  0
 15 27  1  0
 27 28  2  0
 11 29  2  0
  5 30  1  0
 30  2  1  0
 29  6  1  0
 28 12  1  0
 26 19  1  0
M  END
>  <Compound_ID>  (690) 
CHEMBL270164

>  <Molecule Name>  (690) 
GW607117X

>  <Molecular Weight>  (690) 
394.43

>  <AlogP>  (690) 
5.14

>  <Smiles>  (690) 
Cc1nnc(-c2ccc(C)c(-c3ccc(C(=O)Nc4cccc(C#N)c4)cc3)c2)o1

>  <Standard Type>  (690) 
Inhibition

>  <Standard Relation>  (690) 
'='

>  <Standard Units>  (690) 
%

>  <Standard Value>  (690) 
-1.21

>  <Assay ChEMBL ID>  (690) 
CHEMBL1962185

>  <Assay Description>  (690) 
GSK_PKIS: TRKA mean inhibition at 1 uM [Nanosyn]

>  <BAO Format ID>  (690) 
BAO_0000357

>  <BAO Label>  (690) 
single protein format

>  <Assay Organism>  (690) 
None

>  <Target ChEMBL ID>  (690) 
CHEMBL2815

>  <Target Name>  (690) 
Nerve growth factor receptor Trk-A

>  <Target Organism>  (690) 
Homo sapiens

>  <Target Type>  (690) 
SINGLE PROTEIN

>  <Document ChEMBL ID>  (690) 
CHEMBL1961873

>  <Source Description>  (690) 
GSK Published Kinase Inhibitor Set

>  <Document Journal>  (690) 
nan

>  <Document Year>  (690) 
nan

>  <Active>  (690) 
0.0

>  <bits>  (690) 
<rdkit.DataStructs.cDataStructs.ExplicitBitVect object at 0x00000159F540D380>

>  <Group>  (690) 
G2

$$$$

     RDKit          2D

 33 37  0  0  0  0  0  0  0  0999 V2000
    2.6522  -11.6600    0.0000 C   0  0  0  0  0  0  0  0  0  0  0  0
    2.4954  -10.1682    0.0000 C   0  0  0  0  0  0  0  0  0  0  0  0
    3.6101   -9.1645    0.0000 C   0  0  0  0  0  0  0  0  0  0  0  0
    3.0000   -7.7942    0.0000 C   0  0  0  0  0  0  0  0  0  0  0  0
    3.7500   -6.4952    0.0000 C   0  0  0  0  0  0  0  0  0  0  0  0
    5.2500   -6.4952    0.0000 O   0  0  0  0  0  0  0  0  0  0  0  0
    3.0000   -5.1962    0.0000 N   0  0  0  0  0  0  0  0  0  0  0  0
    3.7500   -3.8971    0.0000 C   0  0  0  0  0  0  0  0  0  0  0  0
    3.0000   -2.5981    0.0000 C   0  0  0  0  0  0  0  0  0  0  0  0
    1.5000   -2.5981    0.0000 N   0  0  0  0  0  0  0  0  0  0  0  0
    0.7500   -1.2990    0.0000 C   0  0  0  0  0  0  0  0  0  0  0  0
    1.5000    0.0000    0.0000 N   0  0  0  0  0  0  0  0  0  0  0  0
    0.7500    1.2990    0.0000 C   0  0  0  0  0  0  0  0  0  0  0  0
   -0.7500    1.2990    0.0000 N   0  0  0  0  0  0  0  0  0  0  0  0
   -1.5000    0.0000    0.0000 C   0  0  0  0  0  0  0  0  0  0  0  0
   -0.7500   -1.2990    0.0000 C   0  0  0  0  0  0  0  0  0  0  0  0
   -1.5000   -2.5981    0.0000 C   0  0  0  0  0  0  0  0  0  0  0  0
   -3.0000   -2.5981    0.0000 N   0  0  0  0  0  0  0  0  0  0  0  0
   -3.7500   -3.8971    0.0000 C   0  0  0  0  0  0  0  0  0  0  0  0
   -5.2500   -3.8971    0.0000 C   0  0  0  0  0  0  0  0  0  0  0  0
   -6.0000   -2.5981    0.0000 C   0  0  0  0  0  0  0  0  0  0  0  0
   -7.5000   -2.5981    0.0000 C   0  0  0  0  0  0  0  0  0  0  0  0
   -8.2500   -3.8971    0.0000 C   0  0  0  0  0  0  0  0  0  0  0  0
   -7.5000   -5.1962    0.0000 C   0  0  0  0  0  0  0  0  0  0  0  0
   -6.0000   -5.1962    0.0000 C   0  0  0  0  0  0  0  0  0  0  0  0
   -3.7500   -1.2990    0.0000 C   0  0  0  0  0  0  0  0  0  0  0  0
   -3.0000    0.0000    0.0000 C   0  0  0  0  0  0  0  0  0  0  0  0
    0.7500   -3.8971    0.0000 C   0  0  0  0  0  0  0  0  0  0  0  0
    1.5000   -5.1962    0.0000 C   0  0  0  0  0  0  0  0  0  0  0  0
    1.5082   -7.9510    0.0000 C   0  0  0  0  0  0  0  0  0  0  0  0
    0.5045   -6.8363    0.0000 C   0  0  0  0  0  0  0  0  0  0  0  0
    1.1963   -9.4182    0.0000 N   0  0  0  0  0  0  0  0  0  0  0  0
   -0.1740  -10.0283    0.0000 C   0  0  0  0  0  0  0  0  0  0  0  0
  1  2  1  0
  2  3  2  0
  3  4  1  0
  4  5  1  0
  5  6  2  0
  5  7  1  0
  7  8  1  0
  8  9  1  0
  9 10  1  0
 10 11  1  0
 11 12  2  0
 12 13  1  0
 13 14  2  0
 14 15  1  0
 15 16  2  0
 16 17  1  0
 17 18  1  0
 18 19  1  0
 19 20  1  0
 20 21  2  0
 21 22  1  0
 22 23  2  0
 23 24  1  0
 24 25  2  0
 18 26  1  0
 26 27  1  0
 10 28  1  0
 28 29  1  0
  4 30  2  0
 30 31  1  0
 30 32  1  0
 32 33  1  0
 32  2  1  0
 29  7  1  0
 16 11  1  0
 25 20  1  0
 27 15  1  0
M  END
>  <Compound_ID>  (691) 
CHEMBL482710

>  <Molecule Name>  (691) 
nan

>  <Molecular Weight>  (691) 
444.58

>  <AlogP>  (691) 
2.95

>  <Smiles>  (691) 
Cc1cc(C(=O)N2CCN(c3ncnc4c3CN(Cc3ccccc3)CC4)CC2)c(C)n1C

>  <Standard Type>  (691) 
Inhibition

>  <Standard Relation>  (691) 
'='

>  <Standard Units>  (691) 
%

>  <Standard Value>  (691) 
0.0

>  <Assay ChEMBL ID>  (691) 
CHEMBL965679

>  <Assay Description>  (691) 
Inhibition of TrkA at 10 uM by HTRF assay relative to control

>  <BAO Format ID>  (691) 
BAO_0000357

>  <BAO Label>  (691) 
single protein format

>  <Assay Organism>  (691) 
None

>  <Target ChEMBL ID>  (691) 
CHEMBL2815

>  <Target Name>  (691) 
Nerve growth factor receptor Trk-A

>  <Target Organism>  (691) 
Homo sapiens

>  <Target Type>  (691) 
SINGLE PROTEIN

>  <Document ChEMBL ID>  (691) 
CHEMBL1150387

>  <Source Description>  (691) 
Scientific Literature

>  <Document Journal>  (691) 
J Med Chem

>  <Document Year>  (691) 
2008.0

>  <Active>  (691) 
0.0

>  <bits>  (691) 
<rdkit.DataStructs.cDataStructs.ExplicitBitVect object at 0x00000159F540FB50>

>  <Group>  (691) 
G2

$$$$

     RDKit          2D

 29 32  0  0  0  0  0  0  0  0999 V2000
    3.0000    0.0000    0.0000 C   0  0  0  0  0  0  0  0  0  0  0  0
    1.5000    0.0000    0.0000 C   0  0  0  0  0  0  0  0  0  0  0  0
    0.7500   -1.2990    0.0000 C   0  0  0  0  0  0  0  0  0  0  0  0
   -0.7500   -1.2990    0.0000 C   0  0  0  0  0  0  0  0  0  0  0  0
   -1.5000    0.0000    0.0000 C   0  0  0  0  0  0  0  0  0  0  0  0
   -0.7500    1.2990    0.0000 C   0  0  0  0  0  0  0  0  0  0  0  0
   -1.5000    2.5981    0.0000 O   0  0  0  0  0  0  0  0  0  0  0  0
   -0.7500    3.8971    0.0000 C   0  0  0  0  0  0  0  0  0  0  0  0
    0.7500    3.8971    0.0000 C   0  0  0  0  0  0  0  0  0  0  0  0
    1.5000    5.1962    0.0000 C   0  0  0  0  0  0  0  0  0  0  0  0
    0.7500    6.4952    0.0000 N   0  0  0  0  0  0  0  0  0  0  0  0
   -0.7500    6.4952    0.0000 C   0  0  0  0  0  0  0  0  0  0  0  0
   -1.5000    7.7942    0.0000 N   0  0  0  0  0  0  0  0  0  0  0  0
   -2.9918    7.9510    0.0000 C   0  0  0  0  0  0  0  0  0  0  0  0
   -3.3037    9.4182    0.0000 C   0  0  0  0  0  0  0  0  0  0  0  0
   -2.0046   10.1682    0.0000 C   0  0  0  0  0  0  0  0  0  0  0  0
   -0.8899    9.1645    0.0000 C   0  0  0  0  0  0  0  0  0  0  0  0
    0.5773    9.4764    0.0000 C   0  0  0  0  0  0  0  0  0  0  0  0
    1.5810    8.3617    0.0000 O   0  0  0  0  0  0  0  0  0  0  0  0
    1.0409   10.9030    0.0000 N   0  0  0  0  0  0  0  0  0  0  0  0
    2.5081   11.2149    0.0000 C   0  0  0  0  0  0  0  0  0  0  0  0
    2.9716   12.6415    0.0000 C   0  0  0  0  0  0  0  0  0  0  0  0
    4.4388   12.9533    0.0000 C   0  0  0  0  0  0  0  0  0  0  0  0
    4.9023   14.3799    0.0000 C   0  0  0  0  0  0  0  0  0  0  0  0
    3.8986   15.4946    0.0000 C   0  0  0  0  0  0  0  0  0  0  0  0
    2.4314   15.1828    0.0000 N   0  0  0  0  0  0  0  0  0  0  0  0
    1.9679   13.7562    0.0000 C   0  0  0  0  0  0  0  0  0  0  0  0
   -1.5000    5.1962    0.0000 N   0  0  0  0  0  0  0  0  0  0  0  0
    0.7500    1.2990    0.0000 C   0  0  0  0  0  0  0  0  0  0  0  0
  1  2  1  0
  2  3  2  0
  3  4  1  0
  4  5  2  0
  5  6  1  0
  6  7  1  0
  7  8  1  0
  8  9  2  0
  9 10  1  0
 10 11  2  0
 11 12  1  0
 12 13  1  0
 13 14  1  0
 14 15  1  0
 15 16  1  0
 16 17  1  0
 17 18  1  1
 18 19  2  0
 18 20  1  0
 20 21  1  0
 21 22  1  0
 22 23  2  0
 23 24  1  0
 24 25  2  0
 25 26  1  0
 26 27  2  0
 12 28  2  0
  6 29  2  0
 29  2  1  0
 28  8  1  0
 17 13  1  0
 27 22  1  0
M  END
>  <Compound_ID>  (692) 
CHEMBL482717

>  <Molecule Name>  (692) 
nan

>  <Molecular Weight>  (692) 
389.46

>  <AlogP>  (692) 
3.26

>  <Smiles>  (692) 
Cc1cccc(Oc2ccnc(N3CCC[C@H]3C(=O)NCc3cccnc3)n2)c1

>  <Standard Type>  (692) 
Inhibition

>  <Standard Relation>  (692) 
'='

>  <Standard Units>  (692) 
%

>  <Standard Value>  (692) 
4.0

>  <Assay ChEMBL ID>  (692) 
CHEMBL965679

>  <Assay Description>  (692) 
Inhibition of TrkA at 10 uM by HTRF assay relative to control

>  <BAO Format ID>  (692) 
BAO_0000357

>  <BAO Label>  (692) 
single protein format

>  <Assay Organism>  (692) 
None

>  <Target ChEMBL ID>  (692) 
CHEMBL2815

>  <Target Name>  (692) 
Nerve growth factor receptor Trk-A

>  <Target Organism>  (692) 
Homo sapiens

>  <Target Type>  (692) 
SINGLE PROTEIN

>  <Document ChEMBL ID>  (692) 
CHEMBL1150387

>  <Source Description>  (692) 
Scientific Literature

>  <Document Journal>  (692) 
J Med Chem

>  <Document Year>  (692) 
2008.0

>  <Active>  (692) 
0.0

>  <bits>  (692) 
<rdkit.DataStructs.cDataStructs.ExplicitBitVect object at 0x00000159F540FC30>

>  <Group>  (692) 
G2

$$$$

     RDKit          2D

 26 30  0  0  0  0  0  0  0  0999 V2000
    2.3907    1.0037    0.0000 C   0  0  0  0  0  0  0  0  0  0  0  0
    1.2760    0.0000    0.0000 C   0  0  0  0  0  0  0  0  0  0  0  0
    2.3907   -1.0037    0.0000 C   0  0  0  0  0  0  0  0  0  0  0  0
    0.3943    1.2135    0.0000 O   0  0  0  0  0  0  0  0  0  0  0  0
   -1.0323    0.7500    0.0000 C   0  0  0  0  0  0  0  0  0  0  0  0
   -1.0323   -0.7500    0.0000 C   0  0  0  0  0  0  0  0  0  0  0  0
   -2.1470   -1.7537    0.0000 C   0  0  0  0  0  0  0  0  0  0  0  0
   -3.5736   -1.2902    0.0000 N   0  0  0  0  0  0  0  0  0  0  0  0
   -4.6883   -2.2939    0.0000 C   0  0  0  0  0  0  0  0  0  0  0  0
   -4.5315   -3.7856    0.0000 N   0  0  0  0  0  0  0  0  0  0  0  0
   -5.9018   -4.3958    0.0000 N   0  0  0  0  0  0  0  0  0  0  0  0
   -6.9055   -3.2810    0.0000 C   0  0  0  0  0  0  0  0  0  0  0  0
   -8.4055   -3.2810    0.0000 C   0  0  0  0  0  0  0  0  0  0  0  0
   -9.1555   -1.9820    0.0000 C   0  0  0  0  0  0  0  0  0  0  0  0
   -8.4055   -0.6830    0.0000 C   0  0  0  0  0  0  0  0  0  0  0  0
   -6.9055   -0.6830    0.0000 C   0  0  0  0  0  0  0  0  0  0  0  0
   -6.1555   -1.9820    0.0000 C   0  0  0  0  0  0  0  0  0  0  0  0
   -1.8351   -3.2209    0.0000 N   0  0  0  0  0  0  0  0  0  0  0  0
   -0.4086   -3.6844    0.0000 C   0  0  0  0  0  0  0  0  0  0  0  0
   -0.0967   -5.1517    0.0000 C   0  0  0  0  0  0  0  0  0  0  0  0
    1.2736   -5.7618    0.0000 C   0  0  0  0  0  0  0  0  0  0  0  0
    1.1168   -7.2536    0.0000 N   0  0  0  0  0  0  0  0  0  0  0  0
   -0.3504   -7.5654    0.0000 N   0  0  0  0  0  0  0  0  0  0  0  0
   -1.1004   -6.2664    0.0000 C   0  0  0  0  0  0  0  0  0  0  0  0
    0.7062   -2.6807    0.0000 N   0  0  0  0  0  0  0  0  0  0  0  0
    0.3943   -1.2135    0.0000 C   0  0  0  0  0  0  0  0  0  0  0  0
  1  2  1  0
  2  3  1  0
  2  4  1  0
  4  5  1  0
  5  6  1  0
  6  7  2  0
  7  8  1  0
  8  9  1  0
  9 10  2  0
 10 11  1  0
 11 12  1  0
 12 13  2  0
 13 14  1  0
 14 15  2  0
 15 16  1  0
 16 17  2  0
  7 18  1  0
 18 19  2  0
 19 20  1  0
 20 21  1  0
 21 22  2  0
 22 23  1  0
 23 24  1  0
 19 25  1  0
 25 26  2  0
 26  2  1  0
 26  6  1  0
 17  9  1  0
 24 20  2  0
 17 12  1  0
M  END
>  <Compound_ID>  (693) 
CHEMBL3758502

>  <Molecule Name>  (693) 
nan

>  <Molecular Weight>  (693) 
347.38

>  <AlogP>  (693) 
3.25

>  <Smiles>  (693) 
CC1(C)OCc2c(Nc3n[nH]c4ccccc34)nc(-c3cn[nH]c3)nc21

>  <Standard Type>  (693) 
Inhibition

>  <Standard Relation>  (693) 
'='

>  <Standard Units>  (693) 
%

>  <Standard Value>  (693) 
10.2

>  <Assay ChEMBL ID>  (693) 
CHEMBL3761277

>  <Assay Description>  (693) 
Inhibition of TRKA (unknown origin) at 100 nM

>  <BAO Format ID>  (693) 
BAO_0000357

>  <BAO Label>  (693) 
single protein format

>  <Assay Organism>  (693) 
Homo sapiens

>  <Target ChEMBL ID>  (693) 
CHEMBL2815

>  <Target Name>  (693) 
Nerve growth factor receptor Trk-A

>  <Target Organism>  (693) 
Homo sapiens

>  <Target Type>  (693) 
SINGLE PROTEIN

>  <Document ChEMBL ID>  (693) 
CHEMBL3758169

>  <Source Description>  (693) 
Scientific Literature

>  <Document Journal>  (693) 
Bioorg Med Chem Lett

>  <Document Year>  (693) 
2016.0

>  <Active>  (693) 
0.0

>  <bits>  (693) 
<rdkit.DataStructs.cDataStructs.ExplicitBitVect object at 0x00000159F540D850>

>  <Group>  (693) 
G2

$$$$

     RDKit          2D

 32 35  0  0  0  0  0  0  0  0999 V2000
  -10.0849   -6.9740    0.0000 N   0  0  0  0  0  0  0  0  0  0  0  0
   -8.6583   -6.5105    0.0000 S   0  0  0  0  0  0  0  0  0  0  0  0
   -9.1218   -5.0839    0.0000 O   0  0  0  0  0  0  0  0  0  0  0  0
   -8.1948   -7.9371    0.0000 O   0  0  0  0  0  0  0  0  0  0  0  0
   -7.2317   -6.0469    0.0000 C   0  0  0  0  0  0  0  0  0  0  0  0
   -6.9199   -4.5797    0.0000 C   0  0  0  0  0  0  0  0  0  0  0  0
   -5.4933   -4.1162    0.0000 C   0  0  0  0  0  0  0  0  0  0  0  0
   -4.3786   -5.1199    0.0000 C   0  0  0  0  0  0  0  0  0  0  0  0
   -2.9520   -4.6564    0.0000 N   0  0  0  0  0  0  0  0  0  0  0  0
   -2.6401   -3.1891    0.0000 N   0  0  0  0  0  0  0  0  0  0  0  0
   -1.2135   -2.7256    0.0000 C   0  0  0  0  0  0  0  0  0  0  0  0
   -0.0000   -3.6073    0.0000 C   0  0  0  0  0  0  0  0  0  0  0  0
    0.0000   -5.1073    0.0000 O   0  0  0  0  0  0  0  0  0  0  0  0
    1.2135   -2.7256    0.0000 N   0  0  0  0  0  0  0  0  0  0  0  0
    0.7500   -1.2990    0.0000 C   0  0  0  0  0  0  0  0  0  0  0  0
    1.5000    0.0000    0.0000 C   0  0  0  0  0  0  0  0  0  0  0  0
    0.7500    1.2990    0.0000 C   0  0  0  0  0  0  0  0  0  0  0  0
   -0.7500    1.2990    0.0000 C   0  0  0  0  0  0  0  0  0  0  0  0
   -1.5000    2.5981    0.0000 C   0  0  0  0  0  0  0  0  0  0  0  0
   -3.0000    2.5981    0.0000 O   0  0  0  0  0  0  0  0  0  0  0  0
   -0.7500    3.8971    0.0000 N   0  0  0  0  0  0  0  0  0  0  0  0
   -1.5000    5.1962    0.0000 C   0  0  0  0  0  0  0  0  0  0  0  0
   -0.7500    6.4952    0.0000 C   0  0  0  0  0  0  0  0  0  0  0  0
    0.7500    6.4952    0.0000 C   0  0  0  0  0  0  0  0  0  0  0  0
    1.5000    7.7942    0.0000 C   0  0  0  0  0  0  0  0  0  0  0  0
    0.7500    9.0933    0.0000 N   0  0  0  0  0  0  0  0  0  0  0  0
   -0.7500    9.0933    0.0000 C   0  0  0  0  0  0  0  0  0  0  0  0
   -1.5000    7.7942    0.0000 C   0  0  0  0  0  0  0  0  0  0  0  0
   -1.5000    0.0000    0.0000 C   0  0  0  0  0  0  0  0  0  0  0  0
   -0.7500   -1.2990    0.0000 C   0  0  0  0  0  0  0  0  0  0  0  0
   -4.6904   -6.5871    0.0000 C   0  0  0  0  0  0  0  0  0  0  0  0
   -6.1170   -7.0506    0.0000 C   0  0  0  0  0  0  0  0  0  0  0  0
  1  2  1  0
  2  3  2  0
  2  4  2  0
  2  5  1  0
  5  6  2  0
  6  7  1  0
  7  8  2  0
  8  9  1  0
  9 10  1  0
 10 11  2  0
 11 12  1  0
 12 13  2  0
 12 14  1  0
 14 15  1  0
 15 16  2  0
 16 17  1  0
 17 18  2  0
 18 19  1  0
 19 20  2  0
 19 21  1  0
 21 22  1  0
 22 23  1  0
 23 24  2  0
 24 25  1  0
 25 26  2  0
 26 27  1  0
 27 28  2  0
 18 29  1  0
 29 30  2  0
  8 31  1  0
 31 32  2  0
 32  5  1  0
 30 11  1  0
 30 15  1  0
 28 23  1  0
M  END
>  <Compound_ID>  (694) 
CHEMBL272165

>  <Molecule Name>  (694) 
GW300657X

>  <Molecular Weight>  (694) 
450.48

>  <AlogP>  (694) 
1.43

>  <Smiles>  (694) 
NS(=O)(=O)c1ccc(N/N=C2\C(=O)Nc3ccc(C(=O)NCc4ccncc4)cc32)cc1

>  <Standard Type>  (694) 
Inhibition

>  <Standard Relation>  (694) 
'='

>  <Standard Units>  (694) 
%

>  <Standard Value>  (694) 
4.11

>  <Assay ChEMBL ID>  (694) 
CHEMBL1962184

>  <Assay Description>  (694) 
GSK_PKIS: TRKA mean inhibition at 0.1 uM [Nanosyn]

>  <BAO Format ID>  (694) 
BAO_0000357

>  <BAO Label>  (694) 
single protein format

>  <Assay Organism>  (694) 
None

>  <Target ChEMBL ID>  (694) 
CHEMBL2815

>  <Target Name>  (694) 
Nerve growth factor receptor Trk-A

>  <Target Organism>  (694) 
Homo sapiens

>  <Target Type>  (694) 
SINGLE PROTEIN

>  <Document ChEMBL ID>  (694) 
CHEMBL1961873

>  <Source Description>  (694) 
GSK Published Kinase Inhibitor Set

>  <Document Journal>  (694) 
nan

>  <Document Year>  (694) 
nan

>  <Active>  (694) 
0.0

>  <bits>  (694) 
<rdkit.DataStructs.cDataStructs.ExplicitBitVect object at 0x00000159F540D150>

>  <Group>  (694) 
G2

$$$$

     RDKit          2D

 30 32  0  0  0  0  0  0  0  0999 V2000
    6.7500   -6.4952    0.0000 C   0  0  0  0  0  0  0  0  0  0  0  0
    6.0000   -5.1962    0.0000 N   0  0  0  0  0  0  0  0  0  0  0  0
    4.5000   -5.1962    0.0000 C   0  0  0  0  0  0  0  0  0  0  0  0
    6.7500   -3.8971    0.0000 C   0  0  0  0  0  0  0  0  0  0  0  0
    6.0000   -2.5981    0.0000 C   0  0  0  0  0  0  0  0  0  0  0  0
    4.7010   -3.3481    0.0000 C   0  0  0  0  0  0  0  0  0  0  0  0
    7.2990   -1.8481    0.0000 C   0  0  0  0  0  0  0  0  0  0  0  0
    5.2500   -1.2990    0.0000 C   0  0  0  0  0  0  0  0  0  0  0  0
    3.7500   -1.2990    0.0000 N   0  0  0  0  0  0  0  0  0  0  0  0
    3.0000    0.0000    0.0000 C   0  0  0  0  0  0  0  0  0  0  0  0
    3.7500    1.2990    0.0000 O   0  0  0  0  0  0  0  0  0  0  0  0
    1.5000    0.0000    0.0000 C   0  0  0  0  0  0  0  0  0  0  0  0
    0.7500   -1.2990    0.0000 C   0  0  0  0  0  0  0  0  0  0  0  0
   -0.7500   -1.2990    0.0000 C   0  0  0  0  0  0  0  0  0  0  0  0
   -1.5000    0.0000    0.0000 N   0  0  0  0  0  0  0  0  0  0  0  0
   -3.0000    0.0000    0.0000 C   0  0  0  0  0  0  0  0  0  0  0  0
   -3.7500    1.2990    0.0000 C   0  0  0  0  0  0  0  0  0  0  0  0
   -5.2500    1.2990    0.0000 C   0  0  0  0  0  0  0  0  0  0  0  0
   -6.0000    2.5981    0.0000 N   0  0  0  0  0  0  0  0  0  0  0  0
   -5.2500    3.8971    0.0000 C   0  0  0  0  0  0  0  0  0  0  0  0
   -6.0000    5.1962    0.0000 C   0  0  0  0  0  0  0  0  0  0  0  0
   -7.5000    5.1962    0.0000 O   0  0  0  0  0  0  0  0  0  0  0  0
   -8.2500    3.8971    0.0000 C   0  0  0  0  0  0  0  0  0  0  0  0
   -7.5000    2.5981    0.0000 C   0  0  0  0  0  0  0  0  0  0  0  0
   -6.0000    0.0000    0.0000 N   0  0  0  0  0  0  0  0  0  0  0  0
   -5.2500   -1.2990    0.0000 C   0  0  0  0  0  0  0  0  0  0  0  0
   -6.0000   -2.5981    0.0000 N   0  0  0  0  0  0  0  0  0  0  0  0
   -3.7500   -1.2990    0.0000 N   0  0  0  0  0  0  0  0  0  0  0  0
   -0.7500    1.2990    0.0000 C   0  0  0  0  0  0  0  0  0  0  0  0
    0.7500    1.2990    0.0000 C   0  0  0  0  0  0  0  0  0  0  0  0
  1  2  1  0
  2  3  1  0
  2  4  1  0
  4  5  1  0
  5  6  1  0
  5  7  1  0
  5  8  1  0
  8  9  1  0
  9 10  1  0
 10 11  2  0
 10 12  1  0
 12 13  1  0
 13 14  1  0
 14 15  1  0
 15 16  1  0
 16 17  2  0
 17 18  1  0
 18 19  1  0
 19 20  1  0
 20 21  1  0
 21 22  1  0
 22 23  1  0
 23 24  1  0
 18 25  2  0
 25 26  1  0
 26 27  1  0
 26 28  2  0
 15 29  1  0
 29 30  1  0
 30 12  1  0
 28 16  1  0
 24 19  1  0
M  END
>  <Compound_ID>  (695) 
CHEMBL519311

>  <Molecule Name>  (695) 
nan

>  <Molecular Weight>  (695) 
419.57

>  <AlogP>  (695) 
0.82

>  <Smiles>  (695) 
CN(C)CC(C)(C)CNC(=O)C1CCN(c2cc(N3CCOCC3)nc(N)n2)CC1

>  <Standard Type>  (695) 
Inhibition

>  <Standard Relation>  (695) 
'='

>  <Standard Units>  (695) 
%

>  <Standard Value>  (695) 
7.0

>  <Assay ChEMBL ID>  (695) 
CHEMBL965679

>  <Assay Description>  (695) 
Inhibition of TrkA at 10 uM by HTRF assay relative to control

>  <BAO Format ID>  (695) 
BAO_0000357

>  <BAO Label>  (695) 
single protein format

>  <Assay Organism>  (695) 
None

>  <Target ChEMBL ID>  (695) 
CHEMBL2815

>  <Target Name>  (695) 
Nerve growth factor receptor Trk-A

>  <Target Organism>  (695) 
Homo sapiens

>  <Target Type>  (695) 
SINGLE PROTEIN

>  <Document ChEMBL ID>  (695) 
CHEMBL1150387

>  <Source Description>  (695) 
Scientific Literature

>  <Document Journal>  (695) 
J Med Chem

>  <Document Year>  (695) 
2008.0

>  <Active>  (695) 
0.0

>  <bits>  (695) 
<rdkit.DataStructs.cDataStructs.ExplicitBitVect object at 0x00000159F540EA40>

>  <Group>  (695) 
G2

$$$$

     RDKit          2D

 34 38  0  0  0  0  0  0  0  0999 V2000
    3.7500   -1.2990    0.0000 C   0  0  0  0  0  0  0  0  0  0  0  0
    3.0000    0.0000    0.0000 O   0  0  0  0  0  0  0  0  0  0  0  0
    1.5000    0.0000    0.0000 C   0  0  0  0  0  0  0  0  0  0  0  0
    0.7500   -1.2990    0.0000 C   0  0  0  0  0  0  0  0  0  0  0  0
   -0.7500   -1.2990    0.0000 C   0  0  0  0  0  0  0  0  0  0  0  0
   -1.5000    0.0000    0.0000 C   0  0  0  0  0  0  0  0  0  0  0  0
   -3.0000    0.0000    0.0000 C   0  0  0  0  0  0  0  0  0  0  0  0
   -3.7500    1.2990    0.0000 C   0  0  0  0  0  0  0  0  0  0  0  0
   -5.2500    1.2990    0.0000 C   0  0  0  0  0  0  0  0  0  0  0  0
   -6.1317    0.0855    0.0000 C   0  0  0  0  0  0  0  0  0  0  0  0
   -5.6682   -1.3411    0.0000 C   0  0  0  0  0  0  0  0  0  0  0  0
   -6.6718   -2.4558    0.0000 C   0  0  0  0  0  0  0  0  0  0  0  0
   -6.2083   -3.8824    0.0000 C   0  0  0  0  0  0  0  0  0  0  0  0
   -4.7411   -4.1942    0.0000 N   0  0  0  0  0  0  0  0  0  0  0  0
   -3.7374   -3.0795    0.0000 C   0  0  0  0  0  0  0  0  0  0  0  0
   -4.2009   -1.6529    0.0000 C   0  0  0  0  0  0  0  0  0  0  0  0
   -7.5583    0.5490    0.0000 N   0  0  0  0  0  0  0  0  0  0  0  0
   -7.5583    2.0490    0.0000 C   0  0  0  0  0  0  0  0  0  0  0  0
   -8.7718    2.9307    0.0000 C   0  0  0  0  0  0  0  0  0  0  0  0
   -8.6150    4.4225    0.0000 C   0  0  0  0  0  0  0  0  0  0  0  0
   -9.8285    5.3042    0.0000 C   0  0  0  0  0  0  0  0  0  0  0  0
  -11.1988    4.6941    0.0000 C   0  0  0  0  0  0  0  0  0  0  0  0
  -12.4124    5.5757    0.0000 S   0  0  0  0  0  3  0  0  0  0  0  0
  -12.2556    7.0675    0.0000 C   0  0  0  0  0  0  0  0  0  0  0  0
  -13.7827    4.9656    0.0000 O   0  0  0  0  0  1  0  0  0  0  0  0
  -11.3556    3.2023    0.0000 C   0  0  0  0  0  0  0  0  0  0  0  0
  -10.1421    2.3206    0.0000 C   0  0  0  0  0  0  0  0  0  0  0  0
  -10.2989    0.8288    0.0000 C   0  0  0  0  0  0  0  0  0  0  0  0
   -6.1317    2.5126    0.0000 N   0  0  0  0  0  0  0  0  0  0  0  0
   -5.6682    3.9391    0.0000 C   0  0  0  0  0  0  0  0  0  0  0  0
   -3.0000    2.5981    0.0000 C   0  0  0  0  0  0  0  0  0  0  0  0
   -1.5000    2.5981    0.0000 C   0  0  0  0  0  0  0  0  0  0  0  0
   -0.7500    1.2990    0.0000 C   0  0  0  0  0  0  0  0  0  0  0  0
    0.7500    1.2990    0.0000 C   0  0  0  0  0  0  0  0  0  0  0  0
  1  2  1  0
  2  3  1  0
  3  4  2  0
  4  5  1  0
  5  6  2  0
  6  7  1  0
  7  8  2  0
  8  9  1  0
  9 10  2  0
 10 11  1  0
 11 12  2  0
 12 13  1  0
 13 14  2  0
 14 15  1  0
 15 16  2  0
 10 17  1  0
 17 18  2  0
 18 19  1  0
 19 20  2  0
 20 21  1  0
 21 22  2  0
 22 23  1  0
 23 24  1  0
 23 25  1  0
 22 26  1  0
 26 27  2  0
 27 28  1  0
 18 29  1  0
 29 30  1  0
  8 31  1  0
 31 32  2  0
 32 33  1  0
 33 34  2  0
 34  3  1  0
 33  6  1  0
 29  9  1  0
 16 11  1  0
 27 19  1  0
M  CHG  2  23   1  25  -1
M  END
>  <Compound_ID>  (696) 
CHEMBL237570

>  <Molecule Name>  (696) 
nan

>  <Molecular Weight>  (696) 
467.59

>  <AlogP>  (696) 
6.02

>  <Smiles>  (696) 
COc1ccc2cc(-c3c(-c4ccncc4)nc(-c4ccc([S+](C)[O-])cc4C)n3C)ccc2c1

>  <Standard Type>  (696) 
Inhibition

>  <Standard Relation>  (696) 
'='

>  <Standard Units>  (696) 
%

>  <Standard Value>  (696) 
0.64

>  <Assay ChEMBL ID>  (696) 
CHEMBL1962184

>  <Assay Description>  (696) 
GSK_PKIS: TRKA mean inhibition at 0.1 uM [Nanosyn]

>  <BAO Format ID>  (696) 
BAO_0000357

>  <BAO Label>  (696) 
single protein format

>  <Assay Organism>  (696) 
None

>  <Target ChEMBL ID>  (696) 
CHEMBL2815

>  <Target Name>  (696) 
Nerve growth factor receptor Trk-A

>  <Target Organism>  (696) 
Homo sapiens

>  <Target Type>  (696) 
SINGLE PROTEIN

>  <Document ChEMBL ID>  (696) 
CHEMBL1961873

>  <Source Description>  (696) 
GSK Published Kinase Inhibitor Set

>  <Document Journal>  (696) 
nan

>  <Document Year>  (696) 
nan

>  <Active>  (696) 
0.0

>  <bits>  (696) 
<rdkit.DataStructs.cDataStructs.ExplicitBitVect object at 0x00000159F540D0E0>

>  <Group>  (696) 
G2

$$$$

     RDKit          2D

 21 23  0  0  0  0  0  0  0  0999 V2000
   -6.2940    7.2357    0.0000 C   0  0  0  0  0  0  0  0  0  0  0  0
   -7.7206    6.7722    0.0000 O   0  0  0  0  0  0  0  0  0  0  0  0
   -8.0325    5.3050    0.0000 C   0  0  0  0  0  0  0  0  0  0  0  0
   -6.9177    4.3013    0.0000 C   0  0  0  0  0  0  0  0  0  0  0  0
   -7.2296    2.8340    0.0000 C   0  0  0  0  0  0  0  0  0  0  0  0
   -6.1149    1.8303    0.0000 C   0  0  0  0  0  0  0  0  0  0  0  0
   -4.6883    2.2939    0.0000 N   0  0  0  0  0  0  0  0  0  0  0  0
   -3.5736    1.2902    0.0000 N   0  0  0  0  0  0  0  0  0  0  0  0
   -2.1470    1.7537    0.0000 C   0  0  0  0  0  0  0  0  0  0  0  0
   -1.8351    3.2209    0.0000 N   0  0  0  0  0  0  0  0  0  0  0  0
   -0.4086    3.6844    0.0000 C   0  0  0  0  0  0  0  0  0  0  0  0
    0.7062    2.6807    0.0000 N   0  0  0  0  0  0  0  0  0  0  0  0
    0.3943    1.2135    0.0000 C   0  0  0  0  0  0  0  0  0  0  0  0
    1.2760    0.0000    0.0000 N   0  0  0  0  0  0  0  0  0  0  0  0
    0.3943   -1.2135    0.0000 N   0  0  0  0  0  0  0  0  0  0  0  0
   -1.0323   -0.7500    0.0000 C   0  0  0  0  0  0  0  0  0  0  0  0
   -1.0323    0.7500    0.0000 C   0  0  0  0  0  0  0  0  0  0  0  0
   -8.6562    2.3705    0.0000 C   0  0  0  0  0  0  0  0  0  0  0  0
   -9.7709    3.3742    0.0000 C   0  0  0  0  0  0  0  0  0  0  0  0
   -9.4590    4.8414    0.0000 C   0  0  0  0  0  0  0  0  0  0  0  0
  -10.5738    5.8451    0.0000 O   0  0  0  0  0  0  0  0  0  0  0  0
  1  2  1  0
  2  3  1  0
  3  4  2  0
  4  5  1  0
  5  6  1  0
  6  7  2  0
  7  8  1  0
  8  9  1  0
  9 10  2  0
 10 11  1  0
 11 12  2  0
 12 13  1  0
 13 14  1  0
 14 15  1  0
 15 16  2  0
 16 17  1  0
  5 18  2  0
 18 19  1  0
 19 20  2  0
 20 21  1  0
 20  3  1  0
 17  9  1  0
 17 13  2  0
M  END
>  <Compound_ID>  (697) 
CHEMBL66004

>  <Molecule Name>  (697) 
GW578748X

>  <Molecular Weight>  (697) 
284.28

>  <AlogP>  (697) 
1.51

>  <Smiles>  (697) 
COc1cc(/C=N/Nc2ncnc3[nH]ncc23)ccc1O

>  <Standard Type>  (697) 
Inhibition

>  <Standard Relation>  (697) 
'='

>  <Standard Units>  (697) 
%

>  <Standard Value>  (697) 
3.15

>  <Assay ChEMBL ID>  (697) 
CHEMBL1962185

>  <Assay Description>  (697) 
GSK_PKIS: TRKA mean inhibition at 1 uM [Nanosyn]

>  <BAO Format ID>  (697) 
BAO_0000357

>  <BAO Label>  (697) 
single protein format

>  <Assay Organism>  (697) 
None

>  <Target ChEMBL ID>  (697) 
CHEMBL2815

>  <Target Name>  (697) 
Nerve growth factor receptor Trk-A

>  <Target Organism>  (697) 
Homo sapiens

>  <Target Type>  (697) 
SINGLE PROTEIN

>  <Document ChEMBL ID>  (697) 
CHEMBL1961873

>  <Source Description>  (697) 
GSK Published Kinase Inhibitor Set

>  <Document Journal>  (697) 
nan

>  <Document Year>  (697) 
nan

>  <Active>  (697) 
0.0

>  <bits>  (697) 
<rdkit.DataStructs.cDataStructs.ExplicitBitVect object at 0x00000159F540EC70>

>  <Group>  (697) 
G2

$$$$

     RDKit          2D

 28 31  0  0  0  0  0  0  0  0999 V2000
    6.7500   -6.4952    0.0000 N   0  0  0  0  0  0  0  0  0  0  0  0
    5.2500   -6.4952    0.0000 S   0  0  0  0  0  0  0  0  0  0  0  0
    5.2500   -7.9952    0.0000 O   0  0  0  0  0  0  0  0  0  0  0  0
    5.2500   -4.9952    0.0000 O   0  0  0  0  0  0  0  0  0  0  0  0
    3.7500   -6.4952    0.0000 C   0  0  0  0  0  0  0  0  0  0  0  0
    3.0000   -7.7942    0.0000 C   0  0  0  0  0  0  0  0  0  0  0  0
    1.5000   -7.7942    0.0000 C   0  0  0  0  0  0  0  0  0  0  0  0
    0.7500   -6.4952    0.0000 C   0  0  0  0  0  0  0  0  0  0  0  0
    1.5000   -5.1962    0.0000 C   0  0  0  0  0  0  0  0  0  0  0  0
    0.7500   -3.8971    0.0000 C   0  0  0  0  0  0  0  0  0  0  0  0
    1.5000   -2.5981    0.0000 C   0  0  0  0  0  0  0  0  0  0  0  0
    0.7500   -1.2990    0.0000 C   0  0  0  0  0  0  0  0  0  0  0  0
    1.5000    0.0000    0.0000 C   0  0  0  0  0  0  0  0  0  0  0  0
    0.7500    1.2990    0.0000 C   0  0  0  0  0  0  0  0  0  0  0  0
   -0.7500    1.2990    0.0000 N   0  0  0  0  0  0  0  0  0  0  0  0
   -1.5000    0.0000    0.0000 C   0  0  0  0  0  0  0  0  0  0  0  0
   -0.7500   -1.2990    0.0000 C   0  0  0  0  0  0  0  0  0  0  0  0
   -1.5000   -2.5981    0.0000 C   0  0  0  0  0  0  0  0  0  0  0  0
   -0.7500   -3.8971    0.0000 C   0  0  0  0  0  0  0  0  0  0  0  0
   -1.5000   -5.1962    0.0000 O   0  0  0  0  0  0  0  0  0  0  0  0
   -3.0000   -5.1962    0.0000 C   0  0  0  0  0  0  0  0  0  0  0  0
   -3.7500   -6.4952    0.0000 C   0  0  0  0  0  0  0  0  0  0  0  0
   -5.2500   -6.4952    0.0000 C   0  0  0  0  0  0  0  0  0  0  0  0
   -6.0000   -7.7942    0.0000 C   0  0  0  0  0  0  0  0  0  0  0  0
   -5.2500   -9.0933    0.0000 C   0  0  0  0  0  0  0  0  0  0  0  0
   -3.7500   -9.0933    0.0000 C   0  0  0  0  0  0  0  0  0  0  0  0
   -3.0000   -7.7942    0.0000 C   0  0  0  0  0  0  0  0  0  0  0  0
    3.0000   -5.1962    0.0000 C   0  0  0  0  0  0  0  0  0  0  0  0
  1  2  1  0
  2  3  2  0
  2  4  2  0
  2  5  1  0
  5  6  2  0
  6  7  1  0
  7  8  2  0
  8  9  1  0
  9 10  1  0
 10 11  2  0
 11 12  1  0
 12 13  2  0
 13 14  1  0
 14 15  2  0
 15 16  1  0
 16 17  2  0
 17 18  1  0
 18 19  2  0
 19 20  1  0
 20 21  1  0
 21 22  1  0
 22 23  2  0
 23 24  1  0
 24 25  2  0
 25 26  1  0
 26 27  2  0
  9 28  2  0
 28  5  1  0
 19 10  1  0
 27 22  1  0
 17 12  1  0
M  END
>  <Compound_ID>  (698) 
CHEMBL483747

>  <Molecule Name>  (698) 
GSK-980961A

>  <Molecular Weight>  (698) 
390.46

>  <AlogP>  (698) 
4.13

>  <Smiles>  (698) 
NS(=O)(=O)c1cccc(-c2cc3ccncc3cc2OCc2ccccc2)c1

>  <Standard Type>  (698) 
Inhibition

>  <Standard Relation>  (698) 
'='

>  <Standard Units>  (698) 
%

>  <Standard Value>  (698) 
1.41

>  <Assay ChEMBL ID>  (698) 
CHEMBL1962184

>  <Assay Description>  (698) 
GSK_PKIS: TRKA mean inhibition at 0.1 uM [Nanosyn]

>  <BAO Format ID>  (698) 
BAO_0000357

>  <BAO Label>  (698) 
single protein format

>  <Assay Organism>  (698) 
None

>  <Target ChEMBL ID>  (698) 
CHEMBL2815

>  <Target Name>  (698) 
Nerve growth factor receptor Trk-A

>  <Target Organism>  (698) 
Homo sapiens

>  <Target Type>  (698) 
SINGLE PROTEIN

>  <Document ChEMBL ID>  (698) 
CHEMBL1961873

>  <Source Description>  (698) 
GSK Published Kinase Inhibitor Set

>  <Document Journal>  (698) 
nan

>  <Document Year>  (698) 
nan

>  <Active>  (698) 
0.0

>  <bits>  (698) 
<rdkit.DataStructs.cDataStructs.ExplicitBitVect object at 0x00000159F540D070>

>  <Group>  (698) 
G2

$$$$

     RDKit          2D

 31 34  0  0  0  0  0  0  0  0999 V2000
   -2.0143    8.6263    0.0000 C   0  0  0  0  0  0  0  0  0  0  0  0
   -3.4408    8.1628    0.0000 C   0  0  0  0  0  0  0  0  0  0  0  0
   -3.7527    6.6955    0.0000 C   0  0  0  0  0  0  0  0  0  0  0  0
   -2.6380    5.6918    0.0000 C   0  0  0  0  0  0  0  0  0  0  0  0
   -1.2114    6.1554    0.0000 O   0  0  0  0  0  0  0  0  0  0  0  0
   -2.9499    4.2246    0.0000 N   0  0  0  0  0  0  0  0  0  0  0  0
   -1.8351    3.2209    0.0000 C   0  0  0  0  0  0  0  0  0  0  0  0
   -0.4086    3.6844    0.0000 C   0  0  0  0  0  0  0  0  0  0  0  0
    0.7062    2.6807    0.0000 C   0  0  0  0  0  0  0  0  0  0  0  0
    2.1328    3.1443    0.0000 Cl  0  0  0  0  0  0  0  0  0  0  0  0
    0.3943    1.2135    0.0000 C   0  0  0  0  0  0  0  0  0  0  0  0
    1.2760    0.0000    0.0000 N   0  0  0  0  0  0  0  0  0  0  0  0
    0.3943   -1.2135    0.0000 N   0  0  0  0  0  0  0  0  0  0  0  0
   -1.0323   -0.7500    0.0000 C   0  0  0  0  0  0  0  0  0  0  0  0
   -1.0323    0.7500    0.0000 C   0  0  0  0  0  0  0  0  0  0  0  0
   -2.1470    1.7537    0.0000 C   0  0  0  0  0  0  0  0  0  0  0  0
   -5.1793    6.2320    0.0000 C   0  0  0  0  0  0  0  0  0  0  0  0
   -5.4912    4.7648    0.0000 C   0  0  0  0  0  0  0  0  0  0  0  0
   -6.9177    4.3013    0.0000 C   0  0  0  0  0  0  0  0  0  0  0  0
   -7.2296    2.8340    0.0000 C   0  0  0  0  0  0  0  0  0  0  0  0
   -6.1149    1.8303    0.0000 C   0  0  0  0  0  0  0  0  0  0  0  0
   -6.4268    0.3631    0.0000 C   0  0  0  0  0  0  0  0  0  0  0  0
   -6.7386   -1.1041    0.0000 F   0  0  0  0  0  0  0  0  0  0  0  0
   -7.8940    0.6750    0.0000 F   0  0  0  0  0  0  0  0  0  0  0  0
   -4.9595    0.0513    0.0000 F   0  0  0  0  0  0  0  0  0  0  0  0
   -4.6883    2.2939    0.0000 C   0  0  0  0  0  0  0  0  0  0  0  0
   -4.3764    3.7611    0.0000 C   0  0  0  0  0  0  0  0  0  0  0  0
   -6.2940    7.2357    0.0000 C   0  0  0  0  0  0  0  0  0  0  0  0
   -5.9821    8.7029    0.0000 C   0  0  0  0  0  0  0  0  0  0  0  0
   -7.0969    9.7066    0.0000 O   0  0  0  0  0  0  0  0  0  0  0  0
   -4.5556    9.1664    0.0000 N   0  0  0  0  0  0  0  0  0  0  0  0
  1  2  1  0
  2  3  2  0
  3  4  1  0
  4  5  2  0
  4  6  1  0
  6  7  1  0
  7  8  2  0
  8  9  1  0
  9 10  1  0
  9 11  2  0
 11 12  1  0
 12 13  1  0
 13 14  2  0
 14 15  1  0
 15 16  2  0
  3 17  1  0
 17 18  1  0
 18 19  2  0
 19 20  1  0
 20 21  2  0
 21 22  1  0
 22 23  1  0
 22 24  1  0
 22 25  1  0
 21 26  1  0
 26 27  2  0
 17 28  1  0
 28 29  1  0
 29 30  2  0
 29 31  1  0
 31  2  1  0
 16  7  1  0
 27 18  1  0
 15 11  1  0
M  END
>  <Compound_ID>  (699) 
CHEMBL427058

>  <Molecule Name>  (699) 
GSK-466317A

>  <Molecular Weight>  (699) 
448.83

>  <AlogP>  (699) 
4.75

>  <Smiles>  (699) 
CC1=C(C(=O)Nc2cc(Cl)c3[nH]ncc3c2)C(c2ccc(C(F)(F)F)cc2)CC(=O)N1

>  <Standard Type>  (699) 
Inhibition

>  <Standard Relation>  (699) 
'='

>  <Standard Units>  (699) 
%

>  <Standard Value>  (699) 
3.77

>  <Assay ChEMBL ID>  (699) 
CHEMBL1962184

>  <Assay Description>  (699) 
GSK_PKIS: TRKA mean inhibition at 0.1 uM [Nanosyn]

>  <BAO Format ID>  (699) 
BAO_0000357

>  <BAO Label>  (699) 
single protein format

>  <Assay Organism>  (699) 
None

>  <Target ChEMBL ID>  (699) 
CHEMBL2815

>  <Target Name>  (699) 
Nerve growth factor receptor Trk-A

>  <Target Organism>  (699) 
Homo sapiens

>  <Target Type>  (699) 
SINGLE PROTEIN

>  <Document ChEMBL ID>  (699) 
CHEMBL1961873

>  <Source Description>  (699) 
GSK Published Kinase Inhibitor Set

>  <Document Journal>  (699) 
nan

>  <Document Year>  (699) 
nan

>  <Active>  (699) 
0.0

>  <bits>  (699) 
<rdkit.DataStructs.cDataStructs.ExplicitBitVect object at 0x00000159F540D000>

>  <Group>  (699) 
G2

$$$$

     RDKit          2D

 33 37  0  0  0  0  0  0  0  0999 V2000
   -4.1131    8.6253    0.0000 C   0  0  0  0  0  0  0  0  0  0  0  0
   -4.4249    7.1580    0.0000 N   0  0  0  0  0  0  0  0  0  0  0  0
   -3.3102    6.1544    0.0000 C   0  0  0  0  0  0  0  0  0  0  0  0
   -3.6221    4.6871    0.0000 C   0  0  0  0  0  0  0  0  0  0  0  0
   -5.0487    4.2236    0.0000 N   0  0  0  0  0  0  0  0  0  0  0  0
   -5.3605    2.7564    0.0000 C   0  0  0  0  0  0  0  0  0  0  0  0
   -6.7871    2.2929    0.0000 C   0  0  0  0  0  0  0  0  0  0  0  0
   -7.0990    0.8256    0.0000 C   0  0  0  0  0  0  0  0  0  0  0  0
   -5.9843   -0.1781    0.0000 C   0  0  0  0  0  0  0  0  0  0  0  0
   -6.2961   -1.6453    0.0000 N   0  0  0  0  0  0  0  0  0  0  0  0
   -5.1814   -2.6490    0.0000 C   0  0  0  0  0  0  0  0  0  0  0  0
   -5.4933   -4.1162    0.0000 N   0  0  0  0  0  0  0  0  0  0  0  0
   -4.3786   -5.1199    0.0000 C   0  0  0  0  0  0  0  0  0  0  0  0
   -2.9520   -4.6564    0.0000 C   0  0  0  0  0  0  0  0  0  0  0  0
   -2.6401   -3.1891    0.0000 C   0  0  0  0  0  0  0  0  0  0  0  0
   -1.2135   -2.7256    0.0000 C   0  0  0  0  0  0  0  0  0  0  0  0
   -0.0000   -3.6073    0.0000 C   0  0  0  0  0  0  0  0  0  0  0  0
    1.2135   -2.7256    0.0000 N   0  0  0  0  0  0  0  0  0  0  0  0
    0.7500   -1.2990    0.0000 N   0  0  0  0  0  0  0  0  0  0  0  0
    1.5000    0.0000    0.0000 N   0  0  0  0  0  0  0  0  0  0  0  0
    0.7500    1.2990    0.0000 C   0  0  0  0  0  0  0  0  0  0  0  0
   -0.7500    1.2990    0.0000 C   0  0  0  0  0  0  0  0  0  0  0  0
   -1.5000    0.0000    0.0000 C   0  0  0  0  0  0  0  0  0  0  0  0
   -0.7500   -1.2990    0.0000 C   0  0  0  0  0  0  0  0  0  0  0  0
   -3.7548   -2.1855    0.0000 N   0  0  0  0  0  0  0  0  0  0  0  0
   -4.5577    0.2855    0.0000 C   0  0  0  0  0  0  0  0  0  0  0  0
   -4.2458    1.7527    0.0000 C   0  0  0  0  0  0  0  0  0  0  0  0
   -2.8192    2.2162    0.0000 C   0  0  0  0  0  0  0  0  0  0  0  0
   -1.3926    2.6797    0.0000 F   0  0  0  0  0  0  0  0  0  0  0  0
   -2.3557    0.7896    0.0000 F   0  0  0  0  0  0  0  0  0  0  0  0
   -3.2828    3.6428    0.0000 F   0  0  0  0  0  0  0  0  0  0  0  0
   -6.1634    5.2273    0.0000 C   0  0  0  0  0  0  0  0  0  0  0  0
   -5.8515    6.6945    0.0000 C   0  0  0  0  0  0  0  0  0  0  0  0
  1  2  1  0
  2  3  1  0
  3  4  1  0
  4  5  1  0
  5  6  1  0
  6  7  2  0
  7  8  1  0
  8  9  2  0
  9 10  1  0
 10 11  1  0
 11 12  2  0
 12 13  1  0
 13 14  2  0
 14 15  1  0
 15 16  1  0
 16 17  1  0
 17 18  2  0
 18 19  1  0
 19 20  1  0
 20 21  2  0
 21 22  1  0
 22 23  2  0
 23 24  1  0
 15 25  2  0
  9 26  1  0
 26 27  2  0
 27 28  1  0
 28 29  1  0
 28 30  1  0
 28 31  1  0
  5 32  1  0
 32 33  1  0
 33  2  1  0
 27  6  1  0
 25 11  1  0
 24 16  2  0
 24 19  1  0
M  END
>  <Compound_ID>  (700) 
CHEMBL468963

>  <Molecule Name>  (700) 
GW779439X

>  <Molecular Weight>  (700) 
454.46

>  <AlogP>  (700) 
3.7

>  <Smiles>  (700) 
CN1CCN(c2ccc(Nc3nccc(-c4cnn5ncccc45)n3)cc2C(F)(F)F)CC1

>  <Standard Type>  (700) 
Inhibition

>  <Standard Relation>  (700) 
'='

>  <Standard Units>  (700) 
%

>  <Standard Value>  (700) 
0.49

>  <Assay ChEMBL ID>  (700) 
CHEMBL1962184

>  <Assay Description>  (700) 
GSK_PKIS: TRKA mean inhibition at 0.1 uM [Nanosyn]

>  <BAO Format ID>  (700) 
BAO_0000357

>  <BAO Label>  (700) 
single protein format

>  <Assay Organism>  (700) 
None

>  <Target ChEMBL ID>  (700) 
CHEMBL2815

>  <Target Name>  (700) 
Nerve growth factor receptor Trk-A

>  <Target Organism>  (700) 
Homo sapiens

>  <Target Type>  (700) 
SINGLE PROTEIN

>  <Document ChEMBL ID>  (700) 
CHEMBL1961873

>  <Source Description>  (700) 
GSK Published Kinase Inhibitor Set

>  <Document Journal>  (700) 
nan

>  <Document Year>  (700) 
nan

>  <Active>  (700) 
0.0

>  <bits>  (700) 
<rdkit.DataStructs.cDataStructs.ExplicitBitVect object at 0x00000159F540ED50>

>  <Group>  (700) 
G2

$$$$

     RDKit          2D

 22 24  0  0  0  0  0  0  0  0999 V2000
    3.7500   -1.2990    0.0000 N   0  0  0  0  0  0  0  0  0  0  0  0
    3.0000    0.0000    0.0000 C   0  0  0  0  0  0  0  0  0  0  0  0
    3.7500    1.2990    0.0000 O   0  0  0  0  0  0  0  0  0  0  0  0
    1.5000    0.0000    0.0000 C   0  0  0  0  0  0  0  0  0  0  0  0
    0.7500   -1.2990    0.0000 C   0  0  0  0  0  0  0  0  0  0  0  0
   -0.7500   -1.2990    0.0000 C   0  0  0  0  0  0  0  0  0  0  0  0
   -1.5000   -2.5981    0.0000 C   0  0  0  0  0  0  0  0  0  0  0  0
   -3.0000   -2.5981    0.0000 C   0  0  0  0  0  0  0  0  0  0  0  0
   -3.7500   -3.8971    0.0000 C   0  0  0  0  0  0  0  0  0  0  0  0
   -3.0000   -5.1962    0.0000 N   0  0  0  0  0  0  0  0  0  0  0  0
   -1.5000   -5.1962    0.0000 C   0  0  0  0  0  0  0  0  0  0  0  0
   -0.7500   -3.8971    0.0000 C   0  0  0  0  0  0  0  0  0  0  0  0
   -1.5000    0.0000    0.0000 C   0  0  0  0  0  0  0  0  0  0  0  0
   -0.7500    1.2990    0.0000 C   0  0  0  0  0  0  0  0  0  0  0  0
   -1.5000    2.5981    0.0000 C   0  0  0  0  0  0  0  0  0  0  0  0
   -0.7500    3.8971    0.0000 C   0  0  0  0  0  0  0  0  0  0  0  0
   -1.5000    5.1962    0.0000 C   0  0  0  0  0  0  0  0  0  0  0  0
   -3.0000    5.1962    0.0000 C   0  0  0  0  0  0  0  0  0  0  0  0
   -3.7500    3.8971    0.0000 C   0  0  0  0  0  0  0  0  0  0  0  0
   -3.0000    2.5981    0.0000 C   0  0  0  0  0  0  0  0  0  0  0  0
    0.7500    1.2990    0.0000 C   0  0  0  0  0  0  0  0  0  0  0  0
    1.5000    2.5981    0.0000 N   0  0  0  0  0  0  0  0  0  0  0  0
  1  2  1  0
  2  3  2  0
  2  4  1  0
  4  5  2  0
  5  6  1  0
  6  7  1  0
  7  8  2  0
  8  9  1  0
  9 10  2  0
 10 11  1  0
 11 12  2  0
  6 13  2  0
 13 14  1  0
 14 15  1  0
 15 16  2  0
 16 17  1  0
 17 18  2  0
 18 19  1  0
 19 20  2  0
 14 21  2  0
 21 22  1  0
 21  4  1  0
 12  7  1  0
 20 15  1  0
M  END
>  <Compound_ID>  (701) 
CHEMBL230911

>  <Molecule Name>  (701) 
GSK-625137A

>  <Molecular Weight>  (701) 
289.34

>  <AlogP>  (701) 
3.1

>  <Smiles>  (701) 
NC(=O)c1cc(-c2ccncc2)cc(-c2ccccc2)c1N

>  <Standard Type>  (701) 
Inhibition

>  <Standard Relation>  (701) 
'='

>  <Standard Units>  (701) 
%

>  <Standard Value>  (701) 
1.66

>  <Assay ChEMBL ID>  (701) 
CHEMBL1962184

>  <Assay Description>  (701) 
GSK_PKIS: TRKA mean inhibition at 0.1 uM [Nanosyn]

>  <BAO Format ID>  (701) 
BAO_0000357

>  <BAO Label>  (701) 
single protein format

>  <Assay Organism>  (701) 
None

>  <Target ChEMBL ID>  (701) 
CHEMBL2815

>  <Target Name>  (701) 
Nerve growth factor receptor Trk-A

>  <Target Organism>  (701) 
Homo sapiens

>  <Target Type>  (701) 
SINGLE PROTEIN

>  <Document ChEMBL ID>  (701) 
CHEMBL1961873

>  <Source Description>  (701) 
GSK Published Kinase Inhibitor Set

>  <Document Journal>  (701) 
nan

>  <Document Year>  (701) 
nan

>  <Active>  (701) 
0.0

>  <bits>  (701) 
<rdkit.DataStructs.cDataStructs.ExplicitBitVect object at 0x00000159F540E7A0>

>  <Group>  (701) 
G2

$$$$

     RDKit          2D

 22 25  0  0  0  0  0  0  0  0999 V2000
   -4.6740   -7.4303    0.0000 N   0  0  0  0  0  0  0  0  0  0  0  0
   -3.3037   -6.8202    0.0000 C   0  0  0  0  0  0  0  0  0  0  0  0
   -2.0046   -7.5702    0.0000 N   0  0  0  0  0  0  0  0  0  0  0  0
   -0.8899   -6.5665    0.0000 C   0  0  0  0  0  0  0  0  0  0  0  0
    0.5773   -6.8783    0.0000 C   0  0  0  0  0  0  0  0  0  0  0  0
    1.0409   -8.3049    0.0000 C   0  0  0  0  0  0  0  0  0  0  0  0
    2.5081   -8.6168    0.0000 C   0  0  0  0  0  0  0  0  0  0  0  0
    3.5118   -7.5021    0.0000 C   0  0  0  0  0  0  0  0  0  0  0  0
    3.0482   -6.0755    0.0000 C   0  0  0  0  0  0  0  0  0  0  0  0
    1.5810   -5.7636    0.0000 N   0  0  0  0  0  0  0  0  0  0  0  0
   -1.5000   -5.1962    0.0000 C   0  0  0  0  0  0  0  0  0  0  0  0
   -0.7500   -3.8971    0.0000 C   0  0  0  0  0  0  0  0  0  0  0  0
    0.7500   -3.8971    0.0000 C   0  0  0  0  0  0  0  0  0  0  0  0
    1.5000   -2.5981    0.0000 C   0  0  0  0  0  0  0  0  0  0  0  0
    0.7500   -1.2990    0.0000 C   0  0  0  0  0  0  0  0  0  0  0  0
    1.5000    0.0000    0.0000 N   0  0  0  0  0  0  0  0  0  0  0  0
    0.7500    1.2990    0.0000 C   0  0  0  0  0  0  0  0  0  0  0  0
   -0.7500    1.2990    0.0000 C   0  0  0  0  0  0  0  0  0  0  0  0
   -1.5000    0.0000    0.0000 C   0  0  0  0  0  0  0  0  0  0  0  0
   -0.7500   -1.2990    0.0000 C   0  0  0  0  0  0  0  0  0  0  0  0
   -1.5000   -2.5981    0.0000 N   0  0  0  0  0  0  0  0  0  0  0  0
   -2.9918   -5.3529    0.0000 S   0  0  0  0  0  0  0  0  0  0  0  0
  1  2  1  0
  2  3  2  0
  3  4  1  0
  4  5  1  0
  5  6  2  0
  6  7  1  0
  7  8  2  0
  8  9  1  0
  9 10  2  0
  4 11  2  0
 11 12  1  0
 12 13  2  0
 13 14  1  0
 14 15  2  0
 15 16  1  0
 16 17  2  0
 17 18  1  0
 18 19  2  0
 19 20  1  0
 20 21  2  0
 11 22  1  0
 22  2  1  0
 10  5  1  0
 21 12  1  0
 20 15  1  0
M  END
>  <Compound_ID>  (702) 
CHEMBL181361

>  <Molecule Name>  (702) 
GW693481X

>  <Molecular Weight>  (702) 
305.37

>  <AlogP>  (702) 
3.4

>  <Smiles>  (702) 
Nc1nc(-c2ccccn2)c(-c2ccc3ncccc3n2)s1

>  <Standard Type>  (702) 
Inhibition

>  <Standard Relation>  (702) 
'='

>  <Standard Units>  (702) 
%

>  <Standard Value>  (702) 
1.12

>  <Assay ChEMBL ID>  (702) 
CHEMBL1962185

>  <Assay Description>  (702) 
GSK_PKIS: TRKA mean inhibition at 1 uM [Nanosyn]

>  <BAO Format ID>  (702) 
BAO_0000357

>  <BAO Label>  (702) 
single protein format

>  <Assay Organism>  (702) 
None

>  <Target ChEMBL ID>  (702) 
CHEMBL2815

>  <Target Name>  (702) 
Nerve growth factor receptor Trk-A

>  <Target Organism>  (702) 
Homo sapiens

>  <Target Type>  (702) 
SINGLE PROTEIN

>  <Document ChEMBL ID>  (702) 
CHEMBL1961873

>  <Source Description>  (702) 
GSK Published Kinase Inhibitor Set

>  <Document Journal>  (702) 
nan

>  <Document Year>  (702) 
nan

>  <Active>  (702) 
0.0

>  <bits>  (702) 
<rdkit.DataStructs.cDataStructs.ExplicitBitVect object at 0x00000159F540CEB0>

>  <Group>  (702) 
G2

$$$$

     RDKit          2D

 32 35  0  0  0  0  0  0  0  0999 V2000
    5.2500    1.2990    0.0000 C   0  0  0  0  0  0  0  0  0  0  0  0
    4.5000    0.0000    0.0000 C   0  0  0  0  0  0  0  0  0  0  0  0
    3.0000    0.0000    0.0000 S   0  0  0  0  0  0  0  0  0  0  0  0
    3.0000    1.5000    0.0000 O   0  0  0  0  0  0  0  0  0  0  0  0
    3.0000   -1.5000    0.0000 O   0  0  0  0  0  0  0  0  0  0  0  0
    1.5000    0.0000    0.0000 C   0  0  0  0  0  0  0  0  0  0  0  0
    0.7500   -1.2990    0.0000 C   0  0  0  0  0  0  0  0  0  0  0  0
   -0.7500   -1.2990    0.0000 C   0  0  0  0  0  0  0  0  0  0  0  0
   -1.5000    0.0000    0.0000 C   0  0  0  0  0  0  0  0  0  0  0  0
   -3.0000    0.0000    0.0000 O   0  0  0  0  0  0  0  0  0  0  0  0
   -3.7500   -1.2990    0.0000 C   0  0  0  0  0  0  0  0  0  0  0  0
   -0.7500    1.2990    0.0000 C   0  0  0  0  0  0  0  0  0  0  0  0
   -1.5000    2.5981    0.0000 N   0  0  0  0  0  0  0  0  0  0  0  0
   -0.7500    3.8971    0.0000 C   0  0  0  0  0  0  0  0  0  0  0  0
   -1.3601    5.2674    0.0000 N   0  0  0  0  0  0  0  0  0  0  0  0
   -0.2454    6.2711    0.0000 C   0  0  0  0  0  0  0  0  0  0  0  0
    1.0537    5.5211    0.0000 C   0  0  0  0  0  0  0  0  0  0  0  0
    2.4240    6.1312    0.0000 C   0  0  0  0  0  0  0  0  0  0  0  0
    3.6375    5.2496    0.0000 C   0  0  0  0  0  0  0  0  0  0  0  0
    5.0078    5.8597    0.0000 C   0  0  0  0  0  0  0  0  0  0  0  0
    5.1646    7.3514    0.0000 C   0  0  0  0  0  0  0  0  0  0  0  0
    3.9511    8.2331    0.0000 C   0  0  0  0  0  0  0  0  0  0  0  0
    4.1079    9.7249    0.0000 C   0  0  0  0  0  0  0  0  0  0  0  0
    5.4782   10.3350    0.0000 C   0  0  0  0  0  0  0  0  0  0  0  0
    5.6350   11.8268    0.0000 C   0  0  0  0  0  0  0  0  0  0  0  0
    4.4215   12.7085    0.0000 C   0  0  0  0  0  0  0  0  0  0  0  0
    3.0511   12.0984    0.0000 C   0  0  0  0  0  0  0  0  0  0  0  0
    2.8943   10.6066    0.0000 C   0  0  0  0  0  0  0  0  0  0  0  0
    1.5240    9.9965    0.0000 F   0  0  0  0  0  0  0  0  0  0  0  0
    2.5808    7.6230    0.0000 C   0  0  0  0  0  0  0  0  0  0  0  0
    0.7418    4.0539    0.0000 O   0  0  0  0  0  0  0  0  0  0  0  0
    0.7500    1.2990    0.0000 C   0  0  0  0  0  0  0  0  0  0  0  0
  1  2  1  0
  2  3  1  0
  3  4  2  0
  3  5  2  0
  3  6  1  0
  6  7  2  0
  7  8  1  0
  8  9  2  0
  9 10  1  0
 10 11  1  0
  9 12  1  0
 12 13  1  0
 13 14  1  0
 14 15  2  0
 15 16  1  0
 16 17  2  0
 17 18  1  0
 18 19  2  0
 19 20  1  0
 20 21  2  0
 21 22  1  0
 22 23  1  0
 23 24  2  0
 24 25  1  0
 25 26  2  0
 26 27  1  0
 27 28  2  0
 28 29  1  0
 22 30  2  0
 17 31  1  0
 12 32  2  0
 32  6  1  0
 31 14  1  0
 30 18  1  0
 28 23  1  0
M  END
>  <Compound_ID>  (703) 
CHEMBL372474

>  <Molecule Name>  (703) 
GW678313X

>  <Molecular Weight>  (703) 
452.51

>  <AlogP>  (703) 
5.69

>  <Smiles>  (703) 
CCS(=O)(=O)c1ccc(OC)c(Nc2ncc(-c3cccc(-c4ccccc4F)c3)o2)c1

>  <Standard Type>  (703) 
Inhibition

>  <Standard Relation>  (703) 
'='

>  <Standard Units>  (703) 
%

>  <Standard Value>  (703) 
6.39

>  <Assay ChEMBL ID>  (703) 
CHEMBL1962184

>  <Assay Description>  (703) 
GSK_PKIS: TRKA mean inhibition at 0.1 uM [Nanosyn]

>  <BAO Format ID>  (703) 
BAO_0000357

>  <BAO Label>  (703) 
single protein format

>  <Assay Organism>  (703) 
None

>  <Target ChEMBL ID>  (703) 
CHEMBL2815

>  <Target Name>  (703) 
Nerve growth factor receptor Trk-A

>  <Target Organism>  (703) 
Homo sapiens

>  <Target Type>  (703) 
SINGLE PROTEIN

>  <Document ChEMBL ID>  (703) 
CHEMBL1961873

>  <Source Description>  (703) 
GSK Published Kinase Inhibitor Set

>  <Document Journal>  (703) 
nan

>  <Document Year>  (703) 
nan

>  <Active>  (703) 
0.0

>  <bits>  (703) 
<rdkit.DataStructs.cDataStructs.ExplicitBitVect object at 0x00000159F540D1C0>

>  <Group>  (703) 
G2

$$$$

     RDKit          2D

 40 44  0  0  0  0  0  0  0  0999 V2000
   -8.8817   20.0538    0.0000 C   0  0  0  0  0  0  0  0  0  0  0  0
   -7.4551   20.5173    0.0000 C   0  0  0  0  0  0  0  0  0  0  0  0
   -6.3404   19.5136    0.0000 N   0  0  0  0  0  0  0  0  0  0  0  0
   -6.6522   18.0464    0.0000 C   0  0  0  0  0  0  0  0  0  0  0  0
   -5.5375   17.0427    0.0000 C   0  0  0  0  0  0  0  0  0  0  0  0
   -4.1109   17.5063    0.0000 N   0  0  0  0  0  0  0  0  0  0  0  0
   -2.9962   16.5026    0.0000 C   0  0  0  0  0  0  0  0  0  0  0  0
   -3.3081   15.0353    0.0000 C   0  0  0  0  0  0  0  0  0  0  0  0
   -4.7347   14.5718    0.0000 C   0  0  0  0  0  0  0  0  0  0  0  0
   -5.0465   13.1046    0.0000 C   0  0  0  0  0  0  0  0  0  0  0  0
   -3.9318   12.1009    0.0000 C   0  0  0  0  0  0  0  0  0  0  0  0
   -4.2437   10.6337    0.0000 N   0  0  0  0  0  0  0  0  0  0  0  0
   -5.6703   10.1701    0.0000 C   0  0  0  0  0  0  0  0  0  0  0  0
   -6.7850   11.1738    0.0000 O   0  0  0  0  0  0  0  0  0  0  0  0
   -5.9821    8.7029    0.0000 C   0  0  0  0  0  0  0  0  0  0  0  0
   -7.4087    8.2394    0.0000 C   0  0  0  0  0  0  0  0  0  0  0  0
   -7.7206    6.7722    0.0000 C   0  0  0  0  0  0  0  0  0  0  0  0
   -6.6059    5.7685    0.0000 C   0  0  0  0  0  0  0  0  0  0  0  0
   -6.9177    4.3013    0.0000 C   0  0  0  0  0  0  0  0  0  0  0  0
   -5.1793    6.2320    0.0000 C   0  0  0  0  0  0  0  0  0  0  0  0
   -4.0646    5.2283    0.0000 C   0  0  0  0  0  0  0  0  0  0  0  0
   -2.9499    4.2246    0.0000 C   0  0  0  0  0  0  0  0  0  0  0  0
   -1.8351    3.2209    0.0000 C   0  0  0  0  0  0  0  0  0  0  0  0
   -0.4086    3.6844    0.0000 C   0  0  0  0  0  0  0  0  0  0  0  0
    0.7062    2.6807    0.0000 N   0  0  0  0  0  0  0  0  0  0  0  0
    0.3943    1.2135    0.0000 C   0  0  0  0  0  0  0  0  0  0  0  0
    1.2760    0.0000    0.0000 N   0  0  0  0  0  0  0  0  0  0  0  0
    0.3943   -1.2135    0.0000 C   0  0  0  0  0  0  0  0  0  0  0  0
   -1.0323   -0.7500    0.0000 C   0  0  0  0  0  0  0  0  0  0  0  0
   -1.0323    0.7500    0.0000 C   0  0  0  0  0  0  0  0  0  0  0  0
   -2.1470    1.7537    0.0000 C   0  0  0  0  0  0  0  0  0  0  0  0
   -4.8674    7.6992    0.0000 C   0  0  0  0  0  0  0  0  0  0  0  0
   -2.5052   12.5644    0.0000 C   0  0  0  0  0  0  0  0  0  0  0  0
   -2.1934   14.0316    0.0000 C   0  0  0  0  0  0  0  0  0  0  0  0
   -0.7668   14.4952    0.0000 C   0  0  0  0  0  0  0  0  0  0  0  0
    0.6598   14.9587    0.0000 F   0  0  0  0  0  0  0  0  0  0  0  0
   -0.3033   13.0686    0.0000 F   0  0  0  0  0  0  0  0  0  0  0  0
   -1.2303   15.9217    0.0000 F   0  0  0  0  0  0  0  0  0  0  0  0
   -3.7991   18.9735    0.0000 C   0  0  0  0  0  0  0  0  0  0  0  0
   -4.9138   19.9772    0.0000 C   0  0  0  0  0  0  0  0  0  0  0  0
  1  2  1  0
  2  3  1  0
  3  4  1  0
  4  5  1  0
  5  6  1  0
  6  7  1  0
  7  8  1  0
  8  9  2  0
  9 10  1  0
 10 11  2  0
 11 12  1  0
 12 13  1  0
 13 14  2  0
 13 15  1  0
 15 16  2  0
 16 17  1  0
 17 18  2  0
 18 19  1  0
 18 20  1  0
 20 21  1  0
 21 22  3  0
 22 23  1  0
 23 24  2  0
 24 25  1  0
 25 26  2  0
 26 27  1  0
 27 28  1  0
 28 29  2  0
 29 30  1  0
 30 31  2  0
 20 32  2  0
 11 33  1  0
 33 34  2  0
 34 35  1  0
 35 36  1  0
 35 37  1  0
 35 38  1  0
  6 39  1  0
 39 40  1  0
 40  3  1  0
 34  8  1  0
 32 15  1  0
 31 23  1  0
 30 26  1  0
M  END
>  <Compound_ID>  (704) 
CHEMBL1170139

>  <Molecule Name>  (704) 
nan

>  <Molecular Weight>  (704) 
545.61

>  <AlogP>  (704) 
5.68

>  <Smiles>  (704) 
CCN1CCN(Cc2ccc(NC(=O)c3ccc(C)c(C#Cc4cnc5[nH]ccc5c4)c3)cc2C(F)(F)F)CC1

>  <Standard Type>  (704) 
Inhibition

>  <Standard Relation>  (704) 
'='

>  <Standard Units>  (704) 
%

>  <Standard Value>  (704) 
0.3

>  <Assay ChEMBL ID>  (704) 
CHEMBL1175104

>  <Assay Description>  (704) 
Inhibition of TRKA at 10 uM

>  <BAO Format ID>  (704) 
BAO_0000357

>  <BAO Label>  (704) 
single protein format

>  <Assay Organism>  (704) 
None

>  <Target ChEMBL ID>  (704) 
CHEMBL2815

>  <Target Name>  (704) 
Nerve growth factor receptor Trk-A

>  <Target Organism>  (704) 
Homo sapiens

>  <Target Type>  (704) 
SINGLE PROTEIN

>  <Document ChEMBL ID>  (704) 
CHEMBL1177794

>  <Source Description>  (704) 
Scientific Literature

>  <Document Journal>  (704) 
Bioorg Med Chem Lett

>  <Document Year>  (704) 
2010.0

>  <Active>  (704) 
0.0

>  <bits>  (704) 
<rdkit.DataStructs.cDataStructs.ExplicitBitVect object at 0x00000159F540CE40>

>  <Group>  (704) 
G2

$$$$

     RDKit          2D

 29 33  0  0  0  0  0  0  0  0999 V2000
    3.7500   -1.2990    0.0000 C   0  0  0  0  0  0  0  0  0  0  0  0
    3.0000    0.0000    0.0000 O   0  0  0  0  0  0  0  0  0  0  0  0
    1.5000    0.0000    0.0000 C   0  0  0  0  0  0  0  0  0  0  0  0
    0.7500   -1.2990    0.0000 C   0  0  0  0  0  0  0  0  0  0  0  0
   -0.7500   -1.2990    0.0000 C   0  0  0  0  0  0  0  0  0  0  0  0
   -1.5000    0.0000    0.0000 C   0  0  0  0  0  0  0  0  0  0  0  0
   -0.7500    1.2990    0.0000 C   0  0  0  0  0  0  0  0  0  0  0  0
    0.7500    1.2990    0.0000 C   0  0  0  0  0  0  0  0  0  0  0  0
    1.5000    2.5981    0.0000 C   0  0  0  0  0  0  0  0  0  0  0  0
    3.0000    2.5981    0.0000 N   0  0  0  0  0  0  0  0  0  0  0  0
    3.7500    1.2990    0.0000 C   0  0  0  0  0  0  0  0  0  0  0  0
    5.2500    1.2990    0.0000 C   0  0  0  0  0  0  0  0  0  0  0  0
    6.0000    2.5981    0.0000 N   0  0  0  0  0  0  0  0  0  0  0  0
    5.2500    3.8971    0.0000 C   0  0  0  0  0  0  0  0  0  0  0  0
    3.7500    3.8971    0.0000 C   0  0  0  0  0  0  0  0  0  0  0  0
   -1.7537    2.4138    0.0000 O   0  0  0  0  0  0  0  0  0  0  0  0
   -3.1240    1.8037    0.0000 C   0  0  0  0  0  0  0  0  0  0  0  0
   -4.4231    2.5537    0.0000 C   0  0  0  0  0  0  0  0  0  0  0  0
   -4.4231    4.0537    0.0000 C   0  0  0  0  0  0  0  0  0  0  0  0
   -3.2095    4.9353    0.0000 N   0  0  0  0  0  0  0  0  0  0  0  0
   -3.6731    6.3619    0.0000 N   0  0  0  0  0  0  0  0  0  0  0  0
   -5.1731    6.3619    0.0000 C   0  0  0  0  0  0  0  0  0  0  0  0
   -6.1767    7.4766    0.0000 N   0  0  0  0  0  0  0  0  0  0  0  0
   -7.6440    7.1648    0.0000 C   0  0  0  0  0  0  0  0  0  0  0  0
   -8.1075    5.7382    0.0000 C   0  0  0  0  0  0  0  0  0  0  0  0
   -7.1038    4.6235    0.0000 C   0  0  0  0  0  0  0  0  0  0  0  0
   -5.6366    4.9353    0.0000 C   0  0  0  0  0  0  0  0  0  0  0  0
   -2.9672    0.3119    0.0000 C   0  0  0  0  0  0  0  0  0  0  0  0
   -4.0819   -0.6918    0.0000 O   0  0  0  0  0  0  0  0  0  0  0  0
  1  2  1  0
  2  3  1  0
  3  4  2  0
  4  5  1  0
  5  6  2  0
  6  7  1  0
  7  8  2  0
  8  9  1  0
  9 10  1  0
 10 11  1  0
 11 12  1  0
 12 13  1  0
 13 14  1  0
 14 15  1  0
  7 16  1  0
 16 17  1  0
 17 18  2  0
 18 19  1  0
 19 20  2  0
 20 21  1  0
 21 22  1  0
 22 23  2  0
 23 24  1  0
 24 25  2  0
 25 26  1  0
 26 27  2  0
 17 28  1  0
 28 29  2  0
  8  3  1  0
 15 10  1  0
 27 19  1  0
 28  6  1  0
 27 22  1  0
M  END
>  <Compound_ID>  (705) 
CHEMBL3735816

>  <Molecule Name>  (705) 
nan

>  <Molecular Weight>  (705) 
391.43

>  <AlogP>  (705) 
1.99

>  <Smiles>  (705) 
COc1ccc2c(c1CN1CCNCC1)O/C(=C\c1n[nH]c3ncccc13)C2=O

>  <Standard Type>  (705) 
Inhibition

>  <Standard Relation>  (705) 
'='

>  <Standard Units>  (705) 
%

>  <Standard Value>  (705) 
1.8

>  <Assay ChEMBL ID>  (705) 
CHEMBL3738546

>  <Assay Description>  (705) 
Inhibition of TRKA (unknown origin) at 200 nM by electrophoretic mobility shift assay

>  <BAO Format ID>  (705) 
BAO_0000357

>  <BAO Label>  (705) 
single protein format

>  <Assay Organism>  (705) 
Homo sapiens

>  <Target ChEMBL ID>  (705) 
CHEMBL2815

>  <Target Name>  (705) 
Nerve growth factor receptor Trk-A

>  <Target Organism>  (705) 
Homo sapiens

>  <Target Type>  (705) 
SINGLE PROTEIN

>  <Document ChEMBL ID>  (705) 
CHEMBL3734671

>  <Source Description>  (705) 
Scientific Literature

>  <Document Journal>  (705) 
Bioorg Med Chem Lett

>  <Document Year>  (705) 
2015.0

>  <Active>  (705) 
0.0

>  <bits>  (705) 
<rdkit.DataStructs.cDataStructs.ExplicitBitVect object at 0x00000159F540CDD0>

>  <Group>  (705) 
G2

$$$$

     RDKit          2D

 29 31  0  0  0  0  0  0  0  0999 V2000
    9.7500   -3.8971    0.0000 C   0  0  0  0  0  0  0  0  0  0  0  0
    8.2500   -3.8971    0.0000 C   0  0  0  0  0  0  0  0  0  0  0  0
    7.5000   -5.1962    0.0000 O   0  0  0  0  0  0  0  0  0  0  0  0
    7.5000   -2.5981    0.0000 C   0  0  0  0  0  0  0  0  0  0  0  0
    6.0000   -2.5981    0.0000 C   0  0  0  0  0  0  0  0  0  0  0  0
    5.2500   -1.2990    0.0000 C   0  0  0  0  0  0  0  0  0  0  0  0
    3.7500   -1.2990    0.0000 C   0  0  0  0  0  0  0  0  0  0  0  0
    3.0000    0.0000    0.0000 C   0  0  0  0  0  0  0  0  0  0  0  0
    3.7500    1.2990    0.0000 O   0  0  0  0  0  0  0  0  0  0  0  0
    1.5000    0.0000    0.0000 N   0  0  0  0  0  0  0  0  0  0  0  0
    0.7500   -1.2990    0.0000 C   0  0  0  0  0  0  0  0  0  0  0  0
   -0.7500   -1.2990    0.0000 C   0  0  0  0  0  0  0  0  0  0  0  0
   -1.5000    0.0000    0.0000 N   0  0  0  0  0  0  0  0  0  0  0  0
   -3.0000    0.0000    0.0000 C   0  0  0  0  0  0  0  0  0  0  0  0
   -3.7500    1.2990    0.0000 N   0  0  0  0  0  0  0  0  0  0  0  0
   -5.2500    1.2990    0.0000 C   0  0  0  0  0  0  0  0  0  0  0  0
   -6.0000    0.0000    0.0000 C   0  0  0  0  0  0  0  0  0  0  0  0
   -5.2500   -1.2990    0.0000 C   0  0  0  0  0  0  0  0  0  0  0  0
   -6.0000   -2.5981    0.0000 O   0  0  0  0  0  0  0  0  0  0  0  0
   -7.5000   -2.5981    0.0000 C   0  0  0  0  0  0  0  0  0  0  0  0
   -8.2500   -1.2990    0.0000 C   0  0  0  0  0  0  0  0  0  0  0  0
   -9.7500   -1.2990    0.0000 C   0  0  0  0  0  0  0  0  0  0  0  0
  -10.5000   -2.5981    0.0000 C   0  0  0  0  0  0  0  0  0  0  0  0
   -9.7500   -3.8971    0.0000 C   0  0  0  0  0  0  0  0  0  0  0  0
  -10.5000   -5.1962    0.0000 C   0  0  0  0  0  0  0  0  0  0  0  0
   -8.2500   -3.8971    0.0000 C   0  0  0  0  0  0  0  0  0  0  0  0
   -3.7500   -1.2990    0.0000 N   0  0  0  0  0  0  0  0  0  0  0  0
   -0.7500    1.2990    0.0000 C   0  0  0  0  0  0  0  0  0  0  0  0
    0.7500    1.2990    0.0000 C   0  0  0  0  0  0  0  0  0  0  0  0
  1  2  1  0
  2  3  2  0
  2  4  1  0
  4  5  1  0
  5  6  1  0
  6  7  1  0
  7  8  1  0
  8  9  2  0
  8 10  1  0
 10 11  1  0
 11 12  1  0
 12 13  1  0
 13 14  1  0
 14 15  2  0
 15 16  1  0
 16 17  2  0
 17 18  1  0
 18 19  1  0
 19 20  1  0
 20 21  2  0
 21 22  1  0
 22 23  2  0
 23 24  1  0
 24 25  1  0
 24 26  2  0
 18 27  2  0
 13 28  1  0
 28 29  1  0
 29 10  1  0
 27 14  1  0
 26 20  1  0
M  END
>  <Compound_ID>  (706) 
CHEMBL484713

>  <Molecule Name>  (706) 
nan

>  <Molecular Weight>  (706) 
396.49

>  <AlogP>  (706) 
3.38

>  <Smiles>  (706) 
CC(=O)CCCCC(=O)N1CCN(c2nccc(Oc3cccc(C)c3)n2)CC1

>  <Standard Type>  (706) 
Inhibition

>  <Standard Relation>  (706) 
'='

>  <Standard Units>  (706) 
%

>  <Standard Value>  (706) 
0.0

>  <Assay ChEMBL ID>  (706) 
CHEMBL965679

>  <Assay Description>  (706) 
Inhibition of TrkA at 10 uM by HTRF assay relative to control

>  <BAO Format ID>  (706) 
BAO_0000357

>  <BAO Label>  (706) 
single protein format

>  <Assay Organism>  (706) 
None

>  <Target ChEMBL ID>  (706) 
CHEMBL2815

>  <Target Name>  (706) 
Nerve growth factor receptor Trk-A

>  <Target Organism>  (706) 
Homo sapiens

>  <Target Type>  (706) 
SINGLE PROTEIN

>  <Document ChEMBL ID>  (706) 
CHEMBL1150387

>  <Source Description>  (706) 
Scientific Literature

>  <Document Journal>  (706) 
J Med Chem

>  <Document Year>  (706) 
2008.0

>  <Active>  (706) 
0.0

>  <bits>  (706) 
<rdkit.DataStructs.cDataStructs.ExplicitBitVect object at 0x00000159F540CD60>

>  <Group>  (706) 
G2

$$$$

     RDKit          2D

 23 25  0  0  0  0  0  0  0  0999 V2000
    4.5000    0.0000    0.0000 N   0  0  0  0  0  0  0  0  0  0  0  0
    3.0000    0.0000    0.0000 S   0  0  0  0  0  0  0  0  0  0  0  0
    3.0000   -1.5000    0.0000 O   0  0  0  0  0  0  0  0  0  0  0  0
    3.0000    1.5000    0.0000 O   0  0  0  0  0  0  0  0  0  0  0  0
    1.5000    0.0000    0.0000 C   0  0  0  0  0  0  0  0  0  0  0  0
    0.7500   -1.2990    0.0000 C   0  0  0  0  0  0  0  0  0  0  0  0
   -0.7500   -1.2990    0.0000 C   0  0  0  0  0  0  0  0  0  0  0  0
   -1.5000    0.0000    0.0000 C   0  0  0  0  0  0  0  0  0  0  0  0
   -3.0000    0.0000    0.0000 N   0  0  0  0  0  0  0  0  0  0  0  0
   -3.7500    1.2990    0.0000 C   0  0  0  0  0  0  0  0  0  0  0  0
   -5.2418    1.4558    0.0000 C   0  0  0  0  0  0  0  0  0  0  0  0
   -5.5537    2.9231    0.0000 C   0  0  0  0  0  0  0  0  0  0  0  0
   -6.9240    3.5332    0.0000 C   0  0  0  0  0  0  0  0  0  0  0  0
   -7.0808    5.0249    0.0000 C   0  0  0  0  0  0  0  0  0  0  0  0
   -8.4511    5.6350    0.0000 C   0  0  0  0  0  0  0  0  0  0  0  0
   -9.6646    4.7534    0.0000 C   0  0  0  0  0  0  0  0  0  0  0  0
   -9.5078    3.2616    0.0000 C   0  0  0  0  0  0  0  0  0  0  0  0
  -10.7213    2.3799    0.0000 O   0  0  0  0  0  0  0  0  0  0  0  0
   -8.1375    2.6515    0.0000 C   0  0  0  0  0  0  0  0  0  0  0  0
   -4.2546    3.6731    0.0000 N   0  0  0  0  0  0  0  0  0  0  0  0
   -3.1399    2.6694    0.0000 N   0  0  0  0  0  0  0  0  0  0  0  0
   -0.7500    1.2990    0.0000 C   0  0  0  0  0  0  0  0  0  0  0  0
    0.7500    1.2990    0.0000 C   0  0  0  0  0  0  0  0  0  0  0  0
  1  2  1  0
  2  3  2  0
  2  4  2  0
  2  5  1  0
  5  6  2  0
  6  7  1  0
  7  8  2  0
  8  9  1  0
  9 10  1  0
 10 11  2  0
 11 12  1  0
 12 13  1  0
 13 14  2  0
 14 15  1  0
 15 16  2  0
 16 17  1  0
 17 18  1  0
 17 19  2  0
 12 20  2  0
 20 21  1  0
  8 22  1  0
 22 23  2  0
 23  5  1  0
 21 10  1  0
 19 13  1  0
M  END
>  <Compound_ID>  (707) 
CHEMBL103104

>  <Molecule Name>  (707) 
GW831090X

>  <Molecular Weight>  (707) 
330.37

>  <AlogP>  (707) 
2.17

>  <Smiles>  (707) 
NS(=O)(=O)c1ccc(Nc2cc(-c3cccc(O)c3)n[nH]2)cc1

>  <Standard Type>  (707) 
Inhibition

>  <Standard Relation>  (707) 
'='

>  <Standard Units>  (707) 
%

>  <Standard Value>  (707) 
4.76

>  <Assay ChEMBL ID>  (707) 
CHEMBL1962184

>  <Assay Description>  (707) 
GSK_PKIS: TRKA mean inhibition at 0.1 uM [Nanosyn]

>  <BAO Format ID>  (707) 
BAO_0000357

>  <BAO Label>  (707) 
single protein format

>  <Assay Organism>  (707) 
None

>  <Target ChEMBL ID>  (707) 
CHEMBL2815

>  <Target Name>  (707) 
Nerve growth factor receptor Trk-A

>  <Target Organism>  (707) 
Homo sapiens

>  <Target Type>  (707) 
SINGLE PROTEIN

>  <Document ChEMBL ID>  (707) 
CHEMBL1961873

>  <Source Description>  (707) 
GSK Published Kinase Inhibitor Set

>  <Document Journal>  (707) 
nan

>  <Document Year>  (707) 
nan

>  <Active>  (707) 
0.0

>  <bits>  (707) 
<rdkit.DataStructs.cDataStructs.ExplicitBitVect object at 0x00000159F540F370>

>  <Group>  (707) 
G2

$$$$

     RDKit          2D

 21 24  0  0  0  0  0  0  0  0999 V2000
    3.3287    1.8373    0.0000 O   0  0  0  0  0  0  0  0  0  0  0  0
    2.3250    2.9520    0.0000 C   0  0  0  0  0  0  0  0  0  0  0  0
    0.8578    2.6401    0.0000 N   0  0  0  0  0  0  0  0  0  0  0  0
    0.3943    1.2135    0.0000 C   0  0  0  0  0  0  0  0  0  0  0  0
    1.2760    0.0000    0.0000 N   0  0  0  0  0  0  0  0  0  0  0  0
    0.3943   -1.2135    0.0000 N   0  0  0  0  0  0  0  0  0  0  0  0
   -1.0323   -0.7500    0.0000 C   0  0  0  0  0  0  0  0  0  0  0  0
   -2.3313   -1.5000    0.0000 N   0  0  0  0  0  0  0  0  0  0  0  0
   -3.6304   -0.7500    0.0000 C   0  0  0  0  0  0  0  0  0  0  0  0
   -4.9294   -1.5000    0.0000 C   0  0  0  0  0  0  0  0  0  0  0  0
   -5.0862   -2.9918    0.0000 C   0  0  0  0  0  0  0  0  0  0  0  0
   -6.5534   -3.3037    0.0000 C   0  0  0  0  0  0  0  0  0  0  0  0
   -7.3034   -2.0046    0.0000 C   0  0  0  0  0  0  0  0  0  0  0  0
   -6.2997   -0.8899    0.0000 O   0  0  0  0  0  0  0  0  0  0  0  0
   -3.6304    0.7500    0.0000 C   0  0  0  0  0  0  0  0  0  0  0  0
   -4.9294    1.5000    0.0000 Br  0  0  0  0  0  0  0  0  0  0  0  0
   -2.3313    1.5000    0.0000 C   0  0  0  0  0  0  0  0  0  0  0  0
   -1.0323    0.7500    0.0000 C   0  0  0  0  0  0  0  0  0  0  0  0
    2.7886    4.3786    0.0000 C   0  0  0  0  0  0  0  0  0  0  0  0
    2.4767    5.8458    0.0000 C   0  0  0  0  0  0  0  0  0  0  0  0
    3.9033    5.3823    0.0000 C   0  0  0  0  0  0  0  0  0  0  0  0
  1  2  2  0
  2  3  1  0
  3  4  1  0
  4  5  2  0
  5  6  1  0
  6  7  1  0
  7  8  2  0
  8  9  1  0
  9 10  1  0
 10 11  2  0
 11 12  1  0
 12 13  2  0
 13 14  1  0
  9 15  2  0
 15 16  1  0
 15 17  1  0
 17 18  2  0
  2 19  1  0
 19 20  1  0
 20 21  1  0
 18  4  1  0
 21 19  1  0
 18  7  1  0
 14 10  1  0
M  END
>  <Compound_ID>  (708) 
CHEMBL408564

>  <Molecule Name>  (708) 
nan

>  <Molecular Weight>  (708) 
347.17

>  <AlogP>  (708) 
3.33

>  <Smiles>  (708) 
O=C(Nc1n[nH]c2nc(-c3ccco3)c(Br)cc12)C1CC1

>  <Standard Type>  (708) 
Inhibition

>  <Standard Relation>  (708) 
'='

>  <Standard Units>  (708) 
%

>  <Standard Value>  (708) 
3.72

>  <Assay ChEMBL ID>  (708) 
CHEMBL1962185

>  <Assay Description>  (708) 
GSK_PKIS: TRKA mean inhibition at 1 uM [Nanosyn]

>  <BAO Format ID>  (708) 
BAO_0000357

>  <BAO Label>  (708) 
single protein format

>  <Assay Organism>  (708) 
None

>  <Target ChEMBL ID>  (708) 
CHEMBL2815

>  <Target Name>  (708) 
Nerve growth factor receptor Trk-A

>  <Target Organism>  (708) 
Homo sapiens

>  <Target Type>  (708) 
SINGLE PROTEIN

>  <Document ChEMBL ID>  (708) 
CHEMBL1961873

>  <Source Description>  (708) 
GSK Published Kinase Inhibitor Set

>  <Document Journal>  (708) 
nan

>  <Document Year>  (708) 
nan

>  <Active>  (708) 
0.0

>  <bits>  (708) 
<rdkit.DataStructs.cDataStructs.ExplicitBitVect object at 0x00000159F540CCF0>

>  <Group>  (708) 
G2

$$$$

     RDKit          2D

 23 25  0  0  0  0  0  0  0  0999 V2000
    3.0000   -0.0000    0.0000 C   0  0  0  0  0  0  0  0  0  0  0  0
    3.7500   -1.2990    0.0000 C   0  0  0  0  0  0  0  0  0  0  0  0
    5.2500   -1.2990    0.0000 C   0  0  0  0  0  0  0  0  0  0  0  0
    6.0000   -2.5981    0.0000 C   0  0  0  0  0  0  0  0  0  0  0  0
    5.2500   -3.8971    0.0000 C   0  0  0  0  0  0  0  0  0  0  0  0
    6.0000   -5.1962    0.0000 O   0  0  0  0  0  0  0  0  0  0  0  0
    3.7500   -3.8971    0.0000 C   0  0  0  0  0  0  0  0  0  0  0  0
    3.0000   -2.5981    0.0000 C   0  0  0  0  0  0  0  0  0  0  0  0
    1.5000   -2.5981    0.0000 N   0  0  0  0  0  0  0  0  0  0  0  0
    0.7500   -1.2990    0.0000 C   0  0  0  0  0  0  0  0  0  0  0  0
    1.5000    0.0000    0.0000 C   0  0  0  0  0  0  0  0  0  0  0  0
    0.7500    1.2990    0.0000 C   0  0  0  0  0  0  0  0  0  0  0  0
   -0.7500    1.2990    0.0000 N   0  0  0  0  0  0  0  0  0  0  0  0
   -1.5000    0.0000    0.0000 C   0  0  0  0  0  0  0  0  0  0  0  0
   -3.0000    0.0000    0.0000 C   0  0  0  0  0  0  0  0  0  0  0  0
   -3.7500   -1.2990    0.0000 C   0  0  0  0  0  0  0  0  0  0  0  0
   -3.0000   -2.5981    0.0000 C   0  0  0  0  0  0  0  0  0  0  0  0
   -3.7500   -3.8971    0.0000 S   0  0  0  0  0  0  0  0  0  0  0  0
   -4.5000   -5.1962    0.0000 C   0  0  0  0  0  0  0  0  0  0  0  0
   -2.4510   -4.6471    0.0000 O   0  0  0  0  0  0  0  0  0  0  0  0
   -5.0490   -3.1471    0.0000 O   0  0  0  0  0  0  0  0  0  0  0  0
   -1.5000   -2.5981    0.0000 C   0  0  0  0  0  0  0  0  0  0  0  0
   -0.7500   -1.2990    0.0000 C   0  0  0  0  0  0  0  0  0  0  0  0
  1  2  1  0
  2  3  2  0
  3  4  1  0
  4  5  2  0
  5  6  1  0
  5  7  1  0
  7  8  2  0
  8  9  1  0
  9 10  1  0
 10 11  2  0
 11 12  1  0
 12 13  2  0
 13 14  1  0
 14 15  2  0
 15 16  1  0
 16 17  2  0
 17 18  1  0
 18 19  1  0
 18 20  2  0
 18 21  2  0
 17 22  1  0
 22 23  2  0
  8  2  1  0
 23 10  1  0
 23 14  1  0
M  END
>  <Compound_ID>  (709) 
CHEMBL237347

>  <Molecule Name>  (709) 
GW559768X

>  <Molecular Weight>  (709) 
328.39

>  <AlogP>  (709) 
3.4

>  <Smiles>  (709) 
Cc1ccc(O)cc1Nc1ccnc2ccc(S(C)(=O)=O)cc12

>  <Standard Type>  (709) 
Inhibition

>  <Standard Relation>  (709) 
'='

>  <Standard Units>  (709) 
%

>  <Standard Value>  (709) 
2.38

>  <Assay ChEMBL ID>  (709) 
CHEMBL1962185

>  <Assay Description>  (709) 
GSK_PKIS: TRKA mean inhibition at 1 uM [Nanosyn]

>  <BAO Format ID>  (709) 
BAO_0000357

>  <BAO Label>  (709) 
single protein format

>  <Assay Organism>  (709) 
None

>  <Target ChEMBL ID>  (709) 
CHEMBL2815

>  <Target Name>  (709) 
Nerve growth factor receptor Trk-A

>  <Target Organism>  (709) 
Homo sapiens

>  <Target Type>  (709) 
SINGLE PROTEIN

>  <Document ChEMBL ID>  (709) 
CHEMBL1961873

>  <Source Description>  (709) 
GSK Published Kinase Inhibitor Set

>  <Document Journal>  (709) 
nan

>  <Document Year>  (709) 
nan

>  <Active>  (709) 
0.0

>  <bits>  (709) 
<rdkit.DataStructs.cDataStructs.ExplicitBitVect object at 0x00000159F540EB20>

>  <Group>  (709) 
G2

$$$$

     RDKit          2D

 23 25  0  0  0  0  0  0  0  0999 V2000
    4.5000    0.0000    0.0000 N   0  0  0  0  0  0  0  0  0  0  0  0
    3.0000    0.0000    0.0000 S   0  0  0  0  0  0  0  0  0  0  0  0
    3.0000   -1.5000    0.0000 O   0  0  0  0  0  0  0  0  0  0  0  0
    3.0000    1.5000    0.0000 O   0  0  0  0  0  0  0  0  0  0  0  0
    1.5000    0.0000    0.0000 C   0  0  0  0  0  0  0  0  0  0  0  0
    0.7500   -1.2990    0.0000 C   0  0  0  0  0  0  0  0  0  0  0  0
   -0.7500   -1.2990    0.0000 C   0  0  0  0  0  0  0  0  0  0  0  0
   -1.5000    0.0000    0.0000 C   0  0  0  0  0  0  0  0  0  0  0  0
   -0.7500    1.2990    0.0000 C   0  0  0  0  0  0  0  0  0  0  0  0
   -1.5000    2.5981    0.0000 N   0  0  0  0  0  0  0  0  0  0  0  0
   -0.7500    3.8971    0.0000 C   0  0  0  0  0  0  0  0  0  0  0  0
   -1.3601    5.2674    0.0000 C   0  0  0  0  0  0  0  0  0  0  0  0
   -0.2454    6.2711    0.0000 C   0  0  0  0  0  0  0  0  0  0  0  0
   -0.4022    7.7629    0.0000 C   0  0  0  0  0  0  0  0  0  0  0  0
    0.8113    8.6446    0.0000 C   0  0  0  0  0  0  0  0  0  0  0  0
    0.6546   10.1364    0.0000 C   0  0  0  0  0  0  0  0  0  0  0  0
   -0.7158   10.7465    0.0000 C   0  0  0  0  0  0  0  0  0  0  0  0
   -0.8726   12.2383    0.0000 F   0  0  0  0  0  0  0  0  0  0  0  0
   -1.9293    9.8648    0.0000 C   0  0  0  0  0  0  0  0  0  0  0  0
   -1.7725    8.3730    0.0000 C   0  0  0  0  0  0  0  0  0  0  0  0
    1.0537    5.5211    0.0000 N   0  0  0  0  0  0  0  0  0  0  0  0
    0.7418    4.0539    0.0000 N   0  0  0  0  0  0  0  0  0  0  0  0
    0.7500    1.2990    0.0000 C   0  0  0  0  0  0  0  0  0  0  0  0
  1  2  1  0
  2  3  2  0
  2  4  2  0
  2  5  1  0
  5  6  2  0
  6  7  1  0
  7  8  2  0
  8  9  1  0
  9 10  1  0
 10 11  1  0
 11 12  2  0
 12 13  1  0
 13 14  1  0
 14 15  2  0
 15 16  1  0
 16 17  2  0
 17 18  1  0
 17 19  1  0
 19 20  2  0
 13 21  2  0
 21 22  1  0
  9 23  2  0
 23  5  1  0
 22 11  1  0
 20 14  1  0
M  END
>  <Compound_ID>  (710) 
CHEMBL1909351

>  <Molecule Name>  (710) 
GW824645A

>  <Molecular Weight>  (710) 
368.82

>  <AlogP>  (710) 
2.61

>  <Smiles>  (710) 
NS(=O)(=O)c1cccc(Nc2cc(-c3ccc(F)cc3)n[nH]2)c1

>  <Standard Type>  (710) 
Inhibition

>  <Standard Relation>  (710) 
'='

>  <Standard Units>  (710) 
%

>  <Standard Value>  (710) 
19.18

>  <Assay ChEMBL ID>  (710) 
CHEMBL1962185

>  <Assay Description>  (710) 
GSK_PKIS: TRKA mean inhibition at 1 uM [Nanosyn]

>  <BAO Format ID>  (710) 
BAO_0000357

>  <BAO Label>  (710) 
single protein format

>  <Assay Organism>  (710) 
None

>  <Target ChEMBL ID>  (710) 
CHEMBL2815

>  <Target Name>  (710) 
Nerve growth factor receptor Trk-A

>  <Target Organism>  (710) 
Homo sapiens

>  <Target Type>  (710) 
SINGLE PROTEIN

>  <Document ChEMBL ID>  (710) 
CHEMBL1961873

>  <Source Description>  (710) 
GSK Published Kinase Inhibitor Set

>  <Document Journal>  (710) 
nan

>  <Document Year>  (710) 
nan

>  <Active>  (710) 
0.0

>  <bits>  (710) 
<rdkit.DataStructs.cDataStructs.ExplicitBitVect object at 0x00000159F540E6C0>

>  <Group>  (710) 
G2

$$$$

     RDKit          2D

 25 28  0  0  0  0  0  0  0  0999 V2000
   -3.7548   -2.1855    0.0000 C   0  0  0  0  0  0  0  0  0  0  0  0
   -2.6401   -3.1891    0.0000 C   0  0  0  0  0  0  0  0  0  0  0  0
   -1.2135   -2.7256    0.0000 N   0  0  0  0  0  0  0  0  0  0  0  0
   -0.0000   -3.6073    0.0000 C   0  0  0  0  0  0  0  0  0  0  0  0
   -0.0000   -5.1073    0.0000 C   0  0  0  0  0  0  0  0  0  0  0  0
    1.2135   -5.9890    0.0000 N   0  0  0  0  0  0  0  0  0  0  0  0
    0.7500   -7.4156    0.0000 O   0  0  0  0  0  0  0  0  0  0  0  0
   -0.7500   -7.4156    0.0000 N   0  0  0  0  0  0  0  0  0  0  0  0
   -1.2135   -5.9890    0.0000 C   0  0  0  0  0  0  0  0  0  0  0  0
   -2.6401   -5.5255    0.0000 N   0  0  0  0  0  0  0  0  0  0  0  0
    1.2135   -2.7256    0.0000 N   0  0  0  0  0  0  0  0  0  0  0  0
    0.7500   -1.2990    0.0000 C   0  0  0  0  0  0  0  0  0  0  0  0
    1.5000    0.0000    0.0000 C   0  0  0  0  0  0  0  0  0  0  0  0
    0.7500    1.2990    0.0000 N   0  0  0  0  0  0  0  0  0  0  0  0
   -0.7500    1.2990    0.0000 C   0  0  0  0  0  0  0  0  0  0  0  0
   -1.5000    0.0000    0.0000 C   0  0  0  0  0  0  0  0  0  0  0  0
   -3.0000    0.0000    0.0000 C   0  0  0  0  0  0  0  0  0  0  0  0
   -3.7500   -1.2990    0.0000 O   0  0  0  0  0  0  0  0  0  0  0  0
   -3.7500    1.2990    0.0000 N   0  0  0  0  0  0  0  0  0  0  0  0
   -5.2418    1.4558    0.0000 C   0  0  0  0  0  0  0  0  0  0  0  0
   -5.5537    2.9231    0.0000 C   0  0  0  0  0  0  0  0  0  0  0  0
   -4.2546    3.6731    0.0000 C   0  0  0  0  0  0  0  0  0  0  0  0
   -4.0978    5.1648    0.0000 N   0  0  0  0  0  0  0  0  0  0  0  0
   -3.1399    2.6694    0.0000 C   0  0  0  0  0  0  0  0  0  0  0  0
   -0.7500   -1.2990    0.0000 C   0  0  0  0  0  0  0  0  0  0  0  0
  1  2  1  0
  2  3  1  0
  3  4  1  0
  4  5  1  0
  5  6  2  0
  6  7  1  0
  7  8  1  0
  8  9  2  0
  9 10  1  0
  4 11  2  0
 11 12  1  0
 12 13  2  0
 13 14  1  0
 14 15  2  0
 15 16  1  0
 16 17  1  0
 17 18  2  0
 17 19  1  0
 19 20  1  0
 20 21  1  0
 21 22  1  0
 22 23  1  6
 22 24  1  0
 16 25  2  0
 25  3  1  0
  9  5  1  0
 25 12  1  0
 24 19  1  0
M  END
>  <Compound_ID>  (711) 
CHEMBL1909384

>  <Molecule Name>  (711) 
nan

>  <Molecular Weight>  (711) 
378.82

>  <AlogP>  (711) 
0.26

>  <Smiles>  (711) 
CCn1c(-c2nonc2N)nc2cncc(C(=O)N3CC[C@H](N)C3)c21

>  <Standard Type>  (711) 
Inhibition

>  <Standard Relation>  (711) 
'='

>  <Standard Units>  (711) 
%

>  <Standard Value>  (711) 
0.41

>  <Assay ChEMBL ID>  (711) 
CHEMBL1962184

>  <Assay Description>  (711) 
GSK_PKIS: TRKA mean inhibition at 0.1 uM [Nanosyn]

>  <BAO Format ID>  (711) 
BAO_0000357

>  <BAO Label>  (711) 
single protein format

>  <Assay Organism>  (711) 
None

>  <Target ChEMBL ID>  (711) 
CHEMBL2815

>  <Target Name>  (711) 
Nerve growth factor receptor Trk-A

>  <Target Organism>  (711) 
Homo sapiens

>  <Target Type>  (711) 
SINGLE PROTEIN

>  <Document ChEMBL ID>  (711) 
CHEMBL1961873

>  <Source Description>  (711) 
GSK Published Kinase Inhibitor Set

>  <Document Journal>  (711) 
nan

>  <Document Year>  (711) 
nan

>  <Active>  (711) 
0.0

>  <bits>  (711) 
<rdkit.DataStructs.cDataStructs.ExplicitBitVect object at 0x00000159F540CC10>

>  <Group>  (711) 
G2

$$$$

     RDKit          2D

 34 39  0  0  0  0  0  0  0  0999 V2000
   -9.5663  -10.9485    0.0000 N   0  0  0  0  0  0  0  0  0  0  0  0
  -10.5700   -9.8338    0.0000 C   0  0  0  0  0  0  0  0  0  0  0  0
   -9.4553   -8.8301    0.0000 C   0  0  0  0  0  0  0  0  0  0  0  0
   -8.0287   -9.2936    0.0000 C   0  0  0  0  0  0  0  0  0  0  0  0
   -6.9140   -8.2899    0.0000 C   0  0  0  0  0  0  0  0  0  0  0  0
   -7.2258   -6.8227    0.0000 C   0  0  0  0  0  0  0  0  0  0  0  0
   -6.1111   -5.8190    0.0000 C   0  0  0  0  0  0  0  0  0  0  0  0
   -4.6845   -6.2825    0.0000 C   0  0  0  0  0  0  0  0  0  0  0  0
   -3.5698   -5.2788    0.0000 N   0  0  0  0  0  0  0  0  0  0  0  0
   -3.8817   -3.8116    0.0000 C   0  0  0  0  0  0  0  0  0  0  0  0
   -3.0000   -2.5981    0.0000 C   0  0  0  0  0  0  0  0  0  0  0  0
   -1.5000   -2.5981    0.0000 C   0  0  0  0  0  0  0  0  0  0  0  0
   -0.7500   -3.8971    0.0000 C   0  0  0  0  0  0  0  0  0  0  0  0
    0.7500   -3.8971    0.0000 C   0  0  0  0  0  0  0  0  0  0  0  0
    1.5000   -2.5981    0.0000 C   0  0  0  0  0  0  0  0  0  0  0  0
    3.0000   -2.5981    0.0000 S   0  0  0  0  0  0  0  0  0  0  0  0
    4.5000   -2.5981    0.0000 N   0  0  0  0  0  0  0  0  0  0  0  0
    3.0000   -4.0981    0.0000 O   0  0  0  0  0  0  0  0  0  0  0  0
    3.0000   -1.0981    0.0000 O   0  0  0  0  0  0  0  0  0  0  0  0
    0.7500   -1.2990    0.0000 C   0  0  0  0  0  0  0  0  0  0  0  0
    1.5000    0.0000    0.0000 C   0  0  0  0  0  0  0  0  0  0  0  0
    0.7500    1.2990    0.0000 C   0  0  0  0  0  0  0  0  0  0  0  0
   -0.7500    1.2990    0.0000 C   0  0  0  0  0  0  0  0  0  0  0  0
   -1.5000    0.0000    0.0000 C   0  0  0  0  0  0  0  0  0  0  0  0
   -0.7500   -1.2990    0.0000 C   0  0  0  0  0  0  0  0  0  0  0  0
   -3.8817   -1.3846    0.0000 C   0  0  0  0  0  0  0  0  0  0  0  0
   -5.3083   -1.8481    0.0000 N   0  0  0  0  0  0  0  0  0  0  0  0
   -5.3083   -3.3481    0.0000 N   0  0  0  0  0  0  0  0  0  0  0  0
   -6.4230   -4.3518    0.0000 C   0  0  0  0  0  0  0  0  0  0  0  0
   -8.6524   -6.3592    0.0000 C   0  0  0  0  0  0  0  0  0  0  0  0
   -9.7671   -7.3629    0.0000 C   0  0  0  0  0  0  0  0  0  0  0  0
  -11.5737   -8.7191    0.0000 C   0  0  0  0  0  0  0  0  0  0  0  0
  -12.6884   -9.7228    0.0000 C   0  0  0  0  0  0  0  0  0  0  0  0
  -11.6847  -10.8375    0.0000 C   0  0  0  0  0  0  0  0  0  0  0  0
  1  2  1  0
  2  3  1  0
  3  4  2  0
  4  5  1  0
  5  6  2  0
  6  7  1  0
  7  8  1  0
  8  9  2  0
  9 10  1  0
 10 11  2  0
 11 12  1  0
 12 13  2  0
 13 14  1  0
 14 15  2  0
 15 16  1  0
 16 17  1  0
 16 18  2  0
 16 19  2  0
 15 20  1  0
 20 21  2  0
 21 22  1  0
 22 23  2  0
 23 24  1  0
 24 25  2  0
 11 26  1  0
 26 27  2  0
 27 28  1  0
 28 29  1  0
  6 30  1  0
 30 31  2  0
  2 32  1  0
 32 33  1  0
 33 34  1  0
 34  2  1  0
 31  3  1  0
 29  7  2  0
 28 10  1  0
 25 12  1  0
 25 20  1  0
M  END
>  <Compound_ID>  (712) 
CHEMBL4278763

>  <Molecule Name>  (712) 
nan

>  <Molecular Weight>  (712) 
469.57

>  <AlogP>  (712) 
4.2

>  <Smiles>  (712) 
NC1(c2ccc(-c3cnc4c(-c5ccc(S(N)(=O)=O)c6ccccc56)cnn4c3)cc2)CCC1

>  <Standard Type>  (712) 
Inhibition

>  <Standard Relation>  (712) 
'='

>  <Standard Units>  (712) 
%

>  <Standard Value>  (712) 
15.0

>  <Assay ChEMBL ID>  (712) 
CHEMBL4263965

>  <Assay Description>  (712) 
Inhibition of TRKA (unknown origin) at 1 uM relative to control

>  <BAO Format ID>  (712) 
BAO_0000357

>  <BAO Label>  (712) 
single protein format

>  <Assay Organism>  (712) 
Homo sapiens

>  <Target ChEMBL ID>  (712) 
CHEMBL2815

>  <Target Name>  (712) 
Nerve growth factor receptor Trk-A

>  <Target Organism>  (712) 
Homo sapiens

>  <Target Type>  (712) 
SINGLE PROTEIN

>  <Document ChEMBL ID>  (712) 
CHEMBL4261595

>  <Source Description>  (712) 
Scientific Literature

>  <Document Journal>  (712) 
Bioorg Med Chem Lett

>  <Document Year>  (712) 
2018.0

>  <Active>  (712) 
0.0

>  <bits>  (712) 
<rdkit.DataStructs.cDataStructs.ExplicitBitVect object at 0x00000159F540CAC0>

>  <Group>  (712) 
G2

$$$$

     RDKit          2D

 29 34  0  0  0  0  0  0  0  0999 V2000
    3.7500   -1.2990    0.0000 C   0  0  0  0  0  0  0  0  0  0  0  0
    3.0000    0.0000    0.0000 O   0  0  0  0  0  0  0  0  0  0  0  0
    1.5000    0.0000    0.0000 C   0  0  0  0  0  0  0  0  0  0  0  0
    0.7500   -1.2990    0.0000 C   0  0  0  0  0  0  0  0  0  0  0  0
   -0.7500   -1.2990    0.0000 C   0  0  0  0  0  0  0  0  0  0  0  0
   -1.5000    0.0000    0.0000 C   0  0  0  0  0  0  0  0  0  0  0  0
   -2.9672    0.3119    0.0000 N   0  0  0  0  0  0  0  0  0  0  0  0
   -3.1240    1.8037    0.0000 C   0  0  0  0  0  0  0  0  0  0  0  0
   -4.3375    2.6853    0.0000 C   0  0  0  0  0  0  0  0  0  0  0  0
   -5.8048    2.3735    0.0000 N   0  0  0  0  0  0  0  0  0  0  0  0
   -6.5548    3.6725    0.0000 C   0  0  0  0  0  0  0  0  0  0  0  0
   -8.0220    3.9844    0.0000 C   0  0  0  0  0  0  0  0  0  0  0  0
   -8.4855    5.4110    0.0000 C   0  0  0  0  0  0  0  0  0  0  0  0
   -7.4818    6.5257    0.0000 C   0  0  0  0  0  0  0  0  0  0  0  0
   -7.9453    7.9523    0.0000 O   0  0  0  0  0  0  0  0  0  0  0  0
   -6.9416    9.0670    0.0000 C   0  0  0  0  0  0  0  0  0  0  0  0
   -6.0146    6.2138    0.0000 C   0  0  0  0  0  0  0  0  0  0  0  0
   -5.5511    4.7872    0.0000 C   0  0  0  0  0  0  0  0  0  0  0  0
   -4.1807    4.1771    0.0000 C   0  0  0  0  0  0  0  0  0  0  0  0
   -2.8104    4.7872    0.0000 C   0  0  0  0  0  0  0  0  0  0  0  0
   -1.5969    3.9055    0.0000 C   0  0  0  0  0  0  0  0  0  0  0  0
   -1.7537    2.4138    0.0000 C   0  0  0  0  0  0  0  0  0  0  0  0
   -0.7500    1.2990    0.0000 C   0  0  0  0  0  0  0  0  0  0  0  0
    0.7500    1.2990    0.0000 C   0  0  0  0  0  0  0  0  0  0  0  0
   -0.3834    4.7872    0.0000 C   0  0  0  0  0  0  0  0  0  0  0  0
    1.0432    4.3237    0.0000 O   0  0  0  0  0  0  0  0  0  0  0  0
   -0.8469    6.2138    0.0000 N   0  0  0  0  0  0  0  0  0  0  0  0
   -2.3469    6.2138    0.0000 C   0  0  0  0  0  0  0  0  0  0  0  0
   -3.2286    7.4273    0.0000 O   0  0  0  0  0  0  0  0  0  0  0  0
  1  2  1  0
  2  3  1  0
  3  4  2  0
  4  5  1  0
  5  6  2  0
  6  7  1  0
  7  8  1  0
  8  9  2  0
  9 10  1  0
 10 11  1  0
 11 12  2  0
 12 13  1  0
 13 14  2  0
 14 15  1  0
 15 16  1  0
 14 17  1  0
 17 18  2  0
 18 19  1  0
 19 20  2  0
 20 21  1  0
 21 22  2  0
 22 23  1  0
 23 24  2  0
 21 25  1  0
 25 26  2  0
 25 27  1  0
 27 28  1  0
 28 29  2  0
 24  3  1  0
 23  6  1  0
 22  8  1  0
 19  9  1  0
 28 20  1  0
 18 11  1  0
M  END
>  <Compound_ID>  (713) 
CHEMBL1956068

>  <Molecule Name>  (713) 
GW296115X

>  <Molecular Weight>  (713) 
385.38

>  <AlogP>  (713) 
3.86

>  <Smiles>  (713) 
COc1ccc2[nH]c3c4[nH]c5ccc(OC)cc5c4c4c(c3c2c1)C(=O)NC4=O

>  <Standard Type>  (713) 
Inhibition

>  <Standard Relation>  (713) 
'='

>  <Standard Units>  (713) 
%

>  <Standard Value>  (713) 
3.47

>  <Assay ChEMBL ID>  (713) 
CHEMBL1962184

>  <Assay Description>  (713) 
GSK_PKIS: TRKA mean inhibition at 0.1 uM [Nanosyn]

>  <BAO Format ID>  (713) 
BAO_0000357

>  <BAO Label>  (713) 
single protein format

>  <Assay Organism>  (713) 
None

>  <Target ChEMBL ID>  (713) 
CHEMBL2815

>  <Target Name>  (713) 
Nerve growth factor receptor Trk-A

>  <Target Organism>  (713) 
Homo sapiens

>  <Target Type>  (713) 
SINGLE PROTEIN

>  <Document ChEMBL ID>  (713) 
CHEMBL1961873

>  <Source Description>  (713) 
GSK Published Kinase Inhibitor Set

>  <Document Journal>  (713) 
nan

>  <Document Year>  (713) 
nan

>  <Active>  (713) 
0.0

>  <bits>  (713) 
<rdkit.DataStructs.cDataStructs.ExplicitBitVect object at 0x00000159F540CC80>

>  <Group>  (713) 
G2

$$$$

     RDKit          2D

 26 28  0  0  0  0  0  0  0  0999 V2000
   -3.7548   -2.1855    0.0000 C   0  0  0  0  0  0  0  0  0  0  0  0
   -2.6401   -3.1891    0.0000 C   0  0  0  0  0  0  0  0  0  0  0  0
   -1.2135   -2.7256    0.0000 N   0  0  0  0  0  0  0  0  0  0  0  0
   -0.0000   -3.6073    0.0000 C   0  0  0  0  0  0  0  0  0  0  0  0
   -0.0000   -5.1073    0.0000 C   0  0  0  0  0  0  0  0  0  0  0  0
    1.2135   -5.9890    0.0000 N   0  0  0  0  0  0  0  0  0  0  0  0
    0.7500   -7.4156    0.0000 O   0  0  0  0  0  0  0  0  0  0  0  0
   -0.7500   -7.4156    0.0000 N   0  0  0  0  0  0  0  0  0  0  0  0
   -1.2135   -5.9890    0.0000 C   0  0  0  0  0  0  0  0  0  0  0  0
   -2.6401   -5.5255    0.0000 N   0  0  0  0  0  0  0  0  0  0  0  0
    1.2135   -2.7256    0.0000 N   0  0  0  0  0  0  0  0  0  0  0  0
    0.7500   -1.2990    0.0000 C   0  0  0  0  0  0  0  0  0  0  0  0
    1.5000    0.0000    0.0000 C   0  0  0  0  0  0  0  0  0  0  0  0
    3.0000    0.0000    0.0000 C   0  0  0  0  0  0  0  0  0  0  0  0
    4.5000    0.0000    0.0000 C   0  0  0  0  0  0  0  0  0  0  0  0
    6.0000    0.0000    0.0000 C   0  0  0  0  0  0  0  0  0  0  0  0
    6.7500    1.2990    0.0000 N   0  0  0  0  0  0  0  0  0  0  0  0
    0.7500    1.2990    0.0000 N   0  0  0  0  0  0  0  0  0  0  0  0
   -0.7500    1.2990    0.0000 C   0  0  0  0  0  0  0  0  0  0  0  0
   -1.5000    0.0000    0.0000 C   0  0  0  0  0  0  0  0  0  0  0  0
   -3.0000    0.0000    0.0000 O   0  0  0  0  0  0  0  0  0  0  0  0
   -3.7500    1.2990    0.0000 C   0  0  0  0  0  0  0  0  0  0  0  0
   -5.2500    1.2990    0.0000 C   0  0  0  0  0  0  0  0  0  0  0  0
   -6.0000    2.5981    0.0000 C   0  0  0  0  0  0  0  0  0  0  0  0
   -7.5000    2.5981    0.0000 N   0  0  0  0  0  0  0  0  0  0  0  0
   -0.7500   -1.2990    0.0000 C   0  0  0  0  0  0  0  0  0  0  0  0
  1  2  1  0
  2  3  1  0
  3  4  1  0
  4  5  1  0
  5  6  2  0
  6  7  1  0
  7  8  1  0
  8  9  2  0
  9 10  1  0
  4 11  2  0
 11 12  1  0
 12 13  2  0
 13 14  1  0
 14 15  3  0
 15 16  1  0
 16 17  1  0
 13 18  1  0
 18 19  2  0
 19 20  1  0
 20 21  1  0
 21 22  1  0
 22 23  1  0
 23 24  1  0
 24 25  1  0
 20 26  2  0
 26  3  1  0
  9  5  1  0
 26 12  1  0
M  END
>  <Compound_ID>  (714) 
CHEMBL1794064

>  <Molecule Name>  (714) 
GSK-561866B

>  <Molecular Weight>  (714) 
470.41

>  <AlogP>  (714) 
0.12

>  <Smiles>  (714) 
CCn1c(-c2nonc2N)nc2c(C#CCN)ncc(OCCCN)c21

>  <Standard Type>  (714) 
Inhibition

>  <Standard Relation>  (714) 
'='

>  <Standard Units>  (714) 
%

>  <Standard Value>  (714) 
-3.88

>  <Assay ChEMBL ID>  (714) 
CHEMBL1962184

>  <Assay Description>  (714) 
GSK_PKIS: TRKA mean inhibition at 0.1 uM [Nanosyn]

>  <BAO Format ID>  (714) 
BAO_0000357

>  <BAO Label>  (714) 
single protein format

>  <Assay Organism>  (714) 
None

>  <Target ChEMBL ID>  (714) 
CHEMBL2815

>  <Target Name>  (714) 
Nerve growth factor receptor Trk-A

>  <Target Organism>  (714) 
Homo sapiens

>  <Target Type>  (714) 
SINGLE PROTEIN

>  <Document ChEMBL ID>  (714) 
CHEMBL1961873

>  <Source Description>  (714) 
GSK Published Kinase Inhibitor Set

>  <Document Journal>  (714) 
nan

>  <Document Year>  (714) 
nan

>  <Active>  (714) 
0.0

>  <bits>  (714) 
<rdkit.DataStructs.cDataStructs.ExplicitBitVect object at 0x00000159F540CA50>

>  <Group>  (714) 
G2

$$$$

     RDKit          2D

 23 26  0  0  0  0  0  0  0  0999 V2000
   -1.8373   -5.6601    0.0000 O   0  0  0  0  0  0  0  0  0  0  0  0
   -2.9520   -4.6564    0.0000 C   0  0  0  0  0  0  0  0  0  0  0  0
   -2.6401   -3.1891    0.0000 N   0  0  0  0  0  0  0  0  0  0  0  0
   -1.2135   -2.7256    0.0000 C   0  0  0  0  0  0  0  0  0  0  0  0
   -0.0000   -3.6073    0.0000 N   0  0  0  0  0  0  0  0  0  0  0  0
    1.2135   -2.7256    0.0000 N   0  0  0  0  0  0  0  0  0  0  0  0
    0.7500   -1.2990    0.0000 C   0  0  0  0  0  0  0  0  0  0  0  0
    1.5000    0.0000    0.0000 C   0  0  0  0  0  0  0  0  0  0  0  0
    0.7500    1.2990    0.0000 C   0  0  0  0  0  0  0  0  0  0  0  0
    1.5000    2.5981    0.0000 C   0  0  0  0  0  0  0  0  0  0  0  0
    3.0000    2.5981    0.0000 C   0  0  0  0  0  0  0  0  0  0  0  0
    3.7500    3.8971    0.0000 C   0  0  0  0  0  0  0  0  0  0  0  0
    5.2500    3.8971    0.0000 F   0  0  0  0  0  0  0  0  0  0  0  0
    3.0000    5.1962    0.0000 C   0  0  0  0  0  0  0  0  0  0  0  0
    1.5000    5.1962    0.0000 C   0  0  0  0  0  0  0  0  0  0  0  0
    0.7500    3.8971    0.0000 C   0  0  0  0  0  0  0  0  0  0  0  0
   -0.7500    3.8971    0.0000 F   0  0  0  0  0  0  0  0  0  0  0  0
   -0.7500    1.2990    0.0000 C   0  0  0  0  0  0  0  0  0  0  0  0
   -1.5000    0.0000    0.0000 C   0  0  0  0  0  0  0  0  0  0  0  0
   -0.7500   -1.2990    0.0000 C   0  0  0  0  0  0  0  0  0  0  0  0
   -4.3786   -5.1199    0.0000 C   0  0  0  0  0  0  0  0  0  0  0  0
   -5.3823   -6.2346    0.0000 C   0  0  0  0  0  0  0  0  0  0  0  0
   -5.8458   -4.8080    0.0000 C   0  0  0  0  0  0  0  0  0  0  0  0
  1  2  2  0
  2  3  1  0
  3  4  1  0
  4  5  2  0
  5  6  1  0
  6  7  1  0
  7  8  2  0
  8  9  1  0
  9 10  1  0
 10 11  2  0
 11 12  1  0
 12 13  1  0
 12 14  2  0
 14 15  1  0
 15 16  2  0
 16 17  1  0
  9 18  2  0
 18 19  1  0
 19 20  2  0
  2 21  1  0
 21 22  1  0
 22 23  1  0
 20  4  1  0
 23 21  1  0
 20  7  1  0
 16 10  1  0
M  END
>  <Compound_ID>  (715) 
CHEMBL261440

>  <Molecule Name>  (715) 
nan

>  <Molecular Weight>  (715) 
313.31

>  <AlogP>  (715) 
3.86

>  <Smiles>  (715) 
O=C(Nc1n[nH]c2cc(-c3cc(F)ccc3F)ccc12)C1CC1

>  <Standard Type>  (715) 
Inhibition

>  <Standard Relation>  (715) 
'='

>  <Standard Units>  (715) 
%

>  <Standard Value>  (715) 
8.4

>  <Assay ChEMBL ID>  (715) 
CHEMBL1962185

>  <Assay Description>  (715) 
GSK_PKIS: TRKA mean inhibition at 1 uM [Nanosyn]

>  <BAO Format ID>  (715) 
BAO_0000357

>  <BAO Label>  (715) 
single protein format

>  <Assay Organism>  (715) 
None

>  <Target ChEMBL ID>  (715) 
CHEMBL2815

>  <Target Name>  (715) 
Nerve growth factor receptor Trk-A

>  <Target Organism>  (715) 
Homo sapiens

>  <Target Type>  (715) 
SINGLE PROTEIN

>  <Document ChEMBL ID>  (715) 
CHEMBL1961873

>  <Source Description>  (715) 
GSK Published Kinase Inhibitor Set

>  <Document Journal>  (715) 
nan

>  <Document Year>  (715) 
nan

>  <Active>  (715) 
0.0

>  <bits>  (715) 
<rdkit.DataStructs.cDataStructs.ExplicitBitVect object at 0x00000159F540C9E0>

>  <Group>  (715) 
G2

$$$$

     RDKit          2D

 22 25  0  0  0  0  0  0  0  0999 V2000
   -3.7701    2.1590    0.0000 C   0  0  0  0  0  0  0  0  0  0  0  0
   -4.0819    0.6918    0.0000 C   0  0  0  0  0  0  0  0  0  0  0  0
   -2.9672   -0.3119    0.0000 N   0  0  0  0  0  0  0  0  0  0  0  0
   -3.1240   -1.8037    0.0000 C   0  0  0  0  0  0  0  0  0  0  0  0
   -4.4231   -2.5537    0.0000 C   0  0  0  0  0  0  0  0  0  0  0  0
   -4.5798   -4.0454    0.0000 N   0  0  0  0  0  0  0  0  0  0  0  0
   -6.0471   -4.3573    0.0000 O   0  0  0  0  0  0  0  0  0  0  0  0
   -6.7971   -3.0583    0.0000 N   0  0  0  0  0  0  0  0  0  0  0  0
   -5.7934   -1.9435    0.0000 C   0  0  0  0  0  0  0  0  0  0  0  0
   -6.1052   -0.4763    0.0000 N   0  0  0  0  0  0  0  0  0  0  0  0
   -1.7537   -2.4138    0.0000 N   0  0  0  0  0  0  0  0  0  0  0  0
   -0.7500   -1.2990    0.0000 C   0  0  0  0  0  0  0  0  0  0  0  0
    0.7500   -1.2990    0.0000 C   0  0  0  0  0  0  0  0  0  0  0  0
    1.5000   -2.5981    0.0000 N   0  0  0  0  0  0  0  0  0  0  0  0
    2.9918   -2.7549    0.0000 C   0  0  0  0  0  0  0  0  0  0  0  0
    3.3037   -4.2221    0.0000 C   0  0  0  0  0  0  0  0  0  0  0  0
    2.0046   -4.9721    0.0000 C   0  0  0  0  0  0  0  0  0  0  0  0
    0.8899   -3.9684    0.0000 C   0  0  0  0  0  0  0  0  0  0  0  0
    1.5000    0.0000    0.0000 N   0  0  0  0  0  0  0  0  0  0  0  0
    0.7500    1.2990    0.0000 C   0  0  0  0  0  0  0  0  0  0  0  0
   -0.7500    1.2990    0.0000 C   0  0  0  0  0  0  0  0  0  0  0  0
   -1.5000    0.0000    0.0000 C   0  0  0  0  0  0  0  0  0  0  0  0
  1  2  1  0
  2  3  1  0
  3  4  1  0
  4  5  1  0
  5  6  2  0
  6  7  1  0
  7  8  1  0
  8  9  2  0
  9 10  1  0
  4 11  2  0
 11 12  1  0
 12 13  2  0
 13 14  1  0
 14 15  1  0
 15 16  1  0
 16 17  1  0
 17 18  1  0
 13 19  1  0
 19 20  2  0
 20 21  1  0
 21 22  2  0
 22  3  1  0
  9  5  1  0
 22 12  1  0
 18 14  1  0
M  END
>  <Compound_ID>  (716) 
CHEMBL187985

>  <Molecule Name>  (716) 
nan

>  <Molecular Weight>  (716) 
299.34

>  <AlogP>  (716) 
1.68

>  <Smiles>  (716) 
CCn1c(-c2nonc2N)nc2c(N3CCCC3)nccc21

>  <Standard Type>  (716) 
Inhibition

>  <Standard Relation>  (716) 
'='

>  <Standard Units>  (716) 
%

>  <Standard Value>  (716) 
1.23

>  <Assay ChEMBL ID>  (716) 
CHEMBL1962184

>  <Assay Description>  (716) 
GSK_PKIS: TRKA mean inhibition at 0.1 uM [Nanosyn]

>  <BAO Format ID>  (716) 
BAO_0000357

>  <BAO Label>  (716) 
single protein format

>  <Assay Organism>  (716) 
None

>  <Target ChEMBL ID>  (716) 
CHEMBL2815

>  <Target Name>  (716) 
Nerve growth factor receptor Trk-A

>  <Target Organism>  (716) 
Homo sapiens

>  <Target Type>  (716) 
SINGLE PROTEIN

>  <Document ChEMBL ID>  (716) 
CHEMBL1961873

>  <Source Description>  (716) 
GSK Published Kinase Inhibitor Set

>  <Document Journal>  (716) 
nan

>  <Document Year>  (716) 
nan

>  <Active>  (716) 
0.0

>  <bits>  (716) 
<rdkit.DataStructs.cDataStructs.ExplicitBitVect object at 0x00000159F540C970>

>  <Group>  (716) 
G2

$$$$

     RDKit          2D

 38 41  0  0  0  0  0  0  0  0999 V2000
    0.7500   -3.8971    0.0000 C   0  0  0  0  0  0  0  0  0  0  0  0
    1.5000   -2.5981    0.0000 N   0  0  0  0  0  0  0  0  0  0  0  0
    0.7500   -1.2990    0.0000 C   0  0  0  0  0  0  0  0  0  0  0  0
    1.5000    0.0000    0.0000 C   0  0  0  0  0  0  0  0  0  0  0  0
    0.7500    1.2990    0.0000 C   0  0  0  0  0  0  0  0  0  0  0  0
   -0.7500    1.2990    0.0000 C   0  0  0  0  0  0  0  0  0  0  0  0
   -1.5000    2.5981    0.0000 N   0  0  0  0  0  0  0  0  0  0  0  0
   -0.7500    3.8971    0.0000 C   0  0  0  0  0  0  0  0  0  0  0  0
    0.7500    3.8971    0.0000 O   0  0  0  0  0  0  0  0  0  0  0  0
   -1.5000    5.1962    0.0000 N   0  0  0  0  0  0  0  0  0  0  0  0
   -0.7500    6.4952    0.0000 C   0  0  0  0  0  0  0  0  0  0  0  0
   -1.5000    7.7942    0.0000 C   0  0  0  0  0  0  0  0  0  0  0  0
   -0.7500    9.0933    0.0000 N   0  0  0  0  0  0  0  0  0  0  0  0
    0.7500    9.0933    0.0000 C   0  0  0  0  0  0  0  0  0  0  0  0
    1.5000   10.3923    0.0000 C   0  0  0  0  0  0  0  0  0  0  0  0
    0.7500   11.6913    0.0000 O   0  0  0  0  0  0  0  0  0  0  0  0
   -0.7500   11.6913    0.0000 C   0  0  0  0  0  0  0  0  0  0  0  0
   -1.5000   10.3923    0.0000 C   0  0  0  0  0  0  0  0  0  0  0  0
   -1.5000    0.0000    0.0000 C   0  0  0  0  0  0  0  0  0  0  0  0
   -0.7500   -1.2990    0.0000 C   0  0  0  0  0  0  0  0  0  0  0  0
    3.0000   -2.5981    0.0000 C   0  0  0  0  0  0  0  0  0  0  0  0
    3.7500   -3.8971    0.0000 C   0  0  0  0  0  0  0  0  0  0  0  0
    5.2500   -3.8971    0.0000 C   0  0  0  0  0  0  0  0  0  0  0  0
    6.0000   -2.5981    0.0000 N   0  0  0  0  0  0  0  0  0  0  0  0
    5.2500   -1.2990    0.0000 C   0  0  0  0  0  0  0  0  0  0  0  0
    6.0000   -0.0000    0.0000 N   0  0  0  0  0  0  0  0  0  0  0  0
    7.5000   -0.0000    0.0000 C   0  0  0  0  0  0  0  0  0  0  0  0
    8.2500   -1.2990    0.0000 C   0  0  0  0  0  0  0  0  0  0  0  0
    9.7500   -1.2990    0.0000 C   0  0  0  0  0  0  0  0  0  0  0  0
   10.5000   -0.0000    0.0000 C   0  0  0  0  0  0  0  0  0  0  0  0
   12.0000   -0.0000    0.0000 C   0  0  0  0  0  0  0  0  0  0  0  0
   12.7500   -1.2990    0.0000 S   0  0  0  0  0  0  0  0  0  0  0  0
   13.5000   -2.5981    0.0000 C   0  0  0  0  0  0  0  0  0  0  0  0
   11.4510   -2.0490    0.0000 O   0  0  0  0  0  0  0  0  0  0  0  0
   14.0490   -0.5490    0.0000 O   0  0  0  0  0  0  0  0  0  0  0  0
    9.7500    1.2990    0.0000 C   0  0  0  0  0  0  0  0  0  0  0  0
    8.2500    1.2990    0.0000 C   0  0  0  0  0  0  0  0  0  0  0  0
    3.7500   -1.2990    0.0000 N   0  0  0  0  0  0  0  0  0  0  0  0
  1  2  1  0
  2  3  1  0
  3  4  2  0
  4  5  1  0
  5  6  2  0
  6  7  1  0
  7  8  1  0
  8  9  2  0
  8 10  1  0
 10 11  1  0
 11 12  1  0
 12 13  1  0
 13 14  1  0
 14 15  1  0
 15 16  1  0
 16 17  1  0
 17 18  1  0
  6 19  1  0
 19 20  2  0
  2 21  1  0
 21 22  2  0
 22 23  1  0
 23 24  2  0
 24 25  1  0
 25 26  1  0
 26 27  1  0
 27 28  2  0
 28 29  1  0
 29 30  2  0
 30 31  1  0
 31 32  1  0
 32 33  1  0
 32 34  2  0
 32 35  2  0
 30 36  1  0
 36 37  2  0
 25 38  2  0
 20  3  1  0
 38 21  1  0
 18 13  1  0
 37 27  1  0
M  END
>  <Compound_ID>  (717) 
CHEMBL1909361

>  <Molecule Name>  (717) 
GW830365A

>  <Molecular Weight>  (717) 
576.12

>  <AlogP>  (717) 
2.99

>  <Smiles>  (717) 
CN(c1ccc(NC(=O)NCCN2CCOCC2)cc1)c1ccnc(Nc2ccc(CS(C)(=O)=O)cc2)n1

>  <Standard Type>  (717) 
Inhibition

>  <Standard Relation>  (717) 
'='

>  <Standard Units>  (717) 
%

>  <Standard Value>  (717) 
1.46

>  <Assay ChEMBL ID>  (717) 
CHEMBL1962184

>  <Assay Description>  (717) 
GSK_PKIS: TRKA mean inhibition at 0.1 uM [Nanosyn]

>  <BAO Format ID>  (717) 
BAO_0000357

>  <BAO Label>  (717) 
single protein format

>  <Assay Organism>  (717) 
None

>  <Target ChEMBL ID>  (717) 
CHEMBL2815

>  <Target Name>  (717) 
Nerve growth factor receptor Trk-A

>  <Target Organism>  (717) 
Homo sapiens

>  <Target Type>  (717) 
SINGLE PROTEIN

>  <Document ChEMBL ID>  (717) 
CHEMBL1961873

>  <Source Description>  (717) 
GSK Published Kinase Inhibitor Set

>  <Document Journal>  (717) 
nan

>  <Document Year>  (717) 
nan

>  <Active>  (717) 
0.0

>  <bits>  (717) 
<rdkit.DataStructs.cDataStructs.ExplicitBitVect object at 0x00000159F540C900>

>  <Group>  (717) 
G2

$$$$

     RDKit          2D

 32 35  0  0  0  0  0  0  0  0999 V2000
    8.2500  -11.6913    0.0000 C   0  0  0  0  0  0  0  0  0  0  0  0
    6.7500  -11.6913    0.0000 C   0  0  0  0  0  0  0  0  0  0  0  0
    6.0000  -10.3923    0.0000 S   0  0  0  0  0  0  0  0  0  0  0  0
    7.2990   -9.6423    0.0000 O   0  0  0  0  0  0  0  0  0  0  0  0
    4.7010  -11.1423    0.0000 O   0  0  0  0  0  0  0  0  0  0  0  0
    5.2500   -9.0933    0.0000 C   0  0  0  0  0  0  0  0  0  0  0  0
    3.7500   -9.0933    0.0000 C   0  0  0  0  0  0  0  0  0  0  0  0
    3.0000   -7.7942    0.0000 C   0  0  0  0  0  0  0  0  0  0  0  0
    3.7500   -6.4952    0.0000 C   0  0  0  0  0  0  0  0  0  0  0  0
    3.0000   -5.1962    0.0000 O   0  0  0  0  0  0  0  0  0  0  0  0
    1.5000   -5.1962    0.0000 C   0  0  0  0  0  0  0  0  0  0  0  0
    5.2500   -6.4952    0.0000 C   0  0  0  0  0  0  0  0  0  0  0  0
    6.0000   -5.1962    0.0000 N   0  0  0  0  0  0  0  0  0  0  0  0
    5.2500   -3.8971    0.0000 C   0  0  0  0  0  0  0  0  0  0  0  0
    6.0000   -2.5981    0.0000 N   0  0  0  0  0  0  0  0  0  0  0  0
    5.2500   -1.2990    0.0000 C   0  0  0  0  0  0  0  0  0  0  0  0
    3.7500   -1.2990    0.0000 C   0  0  0  0  0  0  0  0  0  0  0  0
    3.0000   -2.5981    0.0000 C   0  0  0  0  0  0  0  0  0  0  0  0
    1.5000   -2.5981    0.0000 N   0  0  0  0  0  0  0  0  0  0  0  0
    0.7500   -3.8971    0.0000 C   0  0  0  0  0  0  0  0  0  0  0  0
    0.7500   -1.2990    0.0000 C   0  0  0  0  0  0  0  0  0  0  0  0
    1.5000    0.0000    0.0000 C   0  0  0  0  0  0  0  0  0  0  0  0
    0.7500    1.2990    0.0000 C   0  0  0  0  0  0  0  0  0  0  0  0
   -0.7500    1.2990    0.0000 C   0  0  0  0  0  0  0  0  0  0  0  0
   -1.7537    2.4138    0.0000 C   0  0  0  0  0  0  0  0  0  0  0  0
   -1.4418    3.8810    0.0000 C   0  0  0  0  0  0  0  0  0  0  0  0
   -3.1240    1.8037    0.0000 N   0  0  0  0  0  0  0  0  0  0  0  0
   -2.9672    0.3119    0.0000 N   0  0  0  0  0  0  0  0  0  0  0  0
   -1.5000    0.0000    0.0000 C   0  0  0  0  0  0  0  0  0  0  0  0
   -0.7500   -1.2990    0.0000 C   0  0  0  0  0  0  0  0  0  0  0  0
    3.7500   -3.8971    0.0000 N   0  0  0  0  0  0  0  0  0  0  0  0
    6.0000   -7.7942    0.0000 C   0  0  0  0  0  0  0  0  0  0  0  0
  1  2  1  0
  2  3  1  0
  3  4  2  0
  3  5  2  0
  3  6  1  0
  6  7  2  0
  7  8  1  0
  8  9  2  0
  9 10  1  0
 10 11  1  0
  9 12  1  0
 12 13  1  0
 13 14  1  0
 14 15  2  0
 15 16  1  0
 16 17  2  0
 17 18  1  0
 18 19  1  0
 19 20  1  0
 19 21  1  0
 21 22  2  0
 22 23  1  0
 23 24  2  0
 24 25  1  0
 25 26  1  0
 25 27  2  0
 27 28  1  0
 28 29  1  0
 29 30  2  0
 18 31  2  0
 12 32  2  0
 32  6  1  0
 31 14  1  0
 30 21  1  0
 29 24  1  0
M  END
>  <Compound_ID>  (718) 
CHEMBL1909358

>  <Molecule Name>  (718) 
GW654652C

>  <Molecular Weight>  (718) 
489.0

>  <AlogP>  (718) 
3.98

>  <Smiles>  (718) 
CCS(=O)(=O)c1ccc(OC)c(Nc2nccc(N(C)c3ccc4c(C)n[nH]c4c3)n2)c1

>  <Standard Type>  (718) 
Inhibition

>  <Standard Relation>  (718) 
'='

>  <Standard Units>  (718) 
%

>  <Standard Value>  (718) 
2.86

>  <Assay ChEMBL ID>  (718) 
CHEMBL1962184

>  <Assay Description>  (718) 
GSK_PKIS: TRKA mean inhibition at 0.1 uM [Nanosyn]

>  <BAO Format ID>  (718) 
BAO_0000357

>  <BAO Label>  (718) 
single protein format

>  <Assay Organism>  (718) 
None

>  <Target ChEMBL ID>  (718) 
CHEMBL2815

>  <Target Name>  (718) 
Nerve growth factor receptor Trk-A

>  <Target Organism>  (718) 
Homo sapiens

>  <Target Type>  (718) 
SINGLE PROTEIN

>  <Document ChEMBL ID>  (718) 
CHEMBL1961873

>  <Source Description>  (718) 
GSK Published Kinase Inhibitor Set

>  <Document Journal>  (718) 
nan

>  <Document Year>  (718) 
nan

>  <Active>  (718) 
0.0

>  <bits>  (718) 
<rdkit.DataStructs.cDataStructs.ExplicitBitVect object at 0x00000159F540E180>

>  <Group>  (718) 
G2

$$$$

     RDKit          2D

 37 41  0  0  0  0  0  0  0  0999 V2000
   -3.0000   -5.1962    0.0000 C   0  0  0  0  0  0  0  0  0  0  0  0
   -1.5000   -5.1962    0.0000 O   0  0  0  0  0  0  0  0  0  0  0  0
   -0.7500   -3.8971    0.0000 C   0  0  0  0  0  0  0  0  0  0  0  0
   -1.5000   -2.5981    0.0000 C   0  0  0  0  0  0  0  0  0  0  0  0
   -0.7500   -1.2990    0.0000 C   0  0  0  0  0  0  0  0  0  0  0  0
    0.7500   -1.2990    0.0000 C   0  0  0  0  0  0  0  0  0  0  0  0
    1.5000   -2.5981    0.0000 C   0  0  0  0  0  0  0  0  0  0  0  0
    0.7500   -3.8971    0.0000 C   0  0  0  0  0  0  0  0  0  0  0  0
    1.5000   -5.1962    0.0000 N   0  0  0  0  0  0  0  0  0  0  0  0
    0.7500   -6.4952    0.0000 C   0  0  0  0  0  0  0  0  0  0  0  0
   -0.7500   -6.4952    0.0000 N   0  0  0  0  0  0  0  0  0  0  0  0
   -1.5000   -7.7942    0.0000 C   0  0  0  0  0  0  0  0  0  0  0  0
   -3.0000   -7.7942    0.0000 N   0  0  0  0  0  0  0  0  0  0  0  0
   -3.7500   -9.0933    0.0000 C   0  0  0  0  0  0  0  0  0  0  0  0
   -3.1399  -10.4636    0.0000 C   0  0  0  0  0  0  0  0  0  0  0  0
   -4.2546  -11.4673    0.0000 C   0  0  0  0  0  0  0  0  0  0  0  0
   -5.5537  -10.7173    0.0000 S   0  0  0  0  0  0  0  0  0  0  0  0
   -5.2418   -9.2501    0.0000 C   0  0  0  0  0  0  0  0  0  0  0  0
   -6.2455   -8.1353    0.0000 C   0  0  0  0  0  0  0  0  0  0  0  0
   -7.7127   -8.4472    0.0000 N   0  0  0  0  0  0  0  0  0  0  0  0
   -5.7820   -6.7088    0.0000 O   0  0  0  0  0  0  0  0  0  0  0  0
   -0.7500   -9.0933    0.0000 C   0  0  0  0  0  0  0  0  0  0  0  0
   -1.2135  -10.5199    0.0000 C   0  0  0  0  0  0  0  0  0  0  0  0
   -0.0000  -11.4015    0.0000 C   0  0  0  0  0  0  0  0  0  0  0  0
    1.2135  -10.5199    0.0000 N   0  0  0  0  0  0  0  0  0  0  0  0
    0.7500   -9.0933    0.0000 C   0  0  0  0  0  0  0  0  0  0  0  0
    1.5000   -7.7942    0.0000 N   0  0  0  0  0  0  0  0  0  0  0  0
    1.5000    0.0000    0.0000 N   0  0  0  0  0  0  0  0  0  0  0  0
    3.0000    0.0000    0.0000 C   0  0  0  0  0  0  0  0  0  0  0  0
    3.7500   -1.2990    0.0000 O   0  0  0  0  0  0  0  0  0  0  0  0
    3.7500    1.2990    0.0000 C   0  0  0  0  0  0  0  0  0  0  0  0
    5.2500    1.2990    0.0000 N   0  0  0  0  0  0  0  0  0  0  0  0
    6.0000    2.5981    0.0000 C   0  0  0  0  0  0  0  0  0  0  0  0
    6.0000    0.0000    0.0000 C   0  0  0  0  0  0  0  0  0  0  0  0
    0.7500    1.2990    0.0000 C   0  0  0  0  0  0  0  0  0  0  0  0
   -0.7500    1.2990    0.0000 C   0  0  0  0  0  0  0  0  0  0  0  0
   -1.5000    0.0000    0.0000 C   0  0  0  0  0  0  0  0  0  0  0  0
  1  2  1  0
  2  3  1  0
  3  4  2  0
  4  5  1  0
  5  6  2  0
  6  7  1  0
  7  8  2  0
  8  9  1  0
  9 10  1  0
 10 11  2  0
 11 12  1  0
 12 13  1  0
 13 14  1  0
 14 15  1  0
 15 16  2  0
 16 17  1  0
 17 18  1  0
 18 19  1  0
 19 20  1  0
 19 21  2  0
 12 22  2  0
 22 23  1  0
 23 24  2  0
 24 25  1  0
 25 26  1  0
 26 27  2  0
  6 28  1  0
 28 29  1  0
 29 30  2  0
 29 31  1  0
 31 32  1  0
 32 33  1  0
 32 34  1  0
 28 35  1  0
 35 36  1  0
 36 37  1  0
  8  3  1  0
 27 10  1  0
 37  5  1  0
 18 14  2  0
 26 22  1  0
M  END
>  <Compound_ID>  (719) 
CHEMBL456252

>  <Molecule Name>  (719) 
GSK-2110236A

>  <Molecular Weight>  (719) 
520.62

>  <AlogP>  (719) 
3.45

>  <Smiles>  (719) 
COc1cc2c(cc1Nc1nc(Nc3ccsc3C(N)=O)c3cc[nH]c3n1)N(C(=O)CN(C)C)CCC2

>  <Standard Type>  (719) 
Inhibition

>  <Standard Relation>  (719) 
'='

>  <Standard Units>  (719) 
%

>  <Standard Value>  (719) 
-26.28

>  <Assay ChEMBL ID>  (719) 
CHEMBL1962185

>  <Assay Description>  (719) 
GSK_PKIS: TRKA mean inhibition at 1 uM [Nanosyn]

>  <BAO Format ID>  (719) 
BAO_0000357

>  <BAO Label>  (719) 
single protein format

>  <Assay Organism>  (719) 
None

>  <Target ChEMBL ID>  (719) 
CHEMBL2815

>  <Target Name>  (719) 
Nerve growth factor receptor Trk-A

>  <Target Organism>  (719) 
Homo sapiens

>  <Target Type>  (719) 
SINGLE PROTEIN

>  <Document ChEMBL ID>  (719) 
CHEMBL1961873

>  <Source Description>  (719) 
GSK Published Kinase Inhibitor Set

>  <Document Journal>  (719) 
nan

>  <Document Year>  (719) 
nan

>  <Active>  (719) 
0.0

>  <bits>  (719) 
<rdkit.DataStructs.cDataStructs.ExplicitBitVect object at 0x00000159F540E500>

>  <Group>  (719) 
G2

$$$$

     RDKit          2D

 28 31  0  0  0  0  0  0  0  0999 V2000
   -3.5736    1.2902    0.0000 N   0  0  0  0  0  0  0  0  0  0  0  0
   -2.1470    1.7537    0.0000 C   0  0  0  0  0  0  0  0  0  0  0  0
   -1.8351    3.2209    0.0000 N   0  0  0  0  0  0  0  0  0  0  0  0
   -0.4086    3.6844    0.0000 C   0  0  0  0  0  0  0  0  0  0  0  0
    0.7062    2.6807    0.0000 C   0  0  0  0  0  0  0  0  0  0  0  0
    2.1328    3.1443    0.0000 C   0  0  0  0  0  0  0  0  0  0  0  0
    3.2475    2.1406    0.0000 C   0  0  0  0  0  0  0  0  0  0  0  0
    4.6741    2.6041    0.0000 C   0  0  0  0  0  0  0  0  0  0  0  0
    4.9859    4.0713    0.0000 C   0  0  0  0  0  0  0  0  0  0  0  0
    3.8712    5.0750    0.0000 C   0  0  0  0  0  0  0  0  0  0  0  0
    4.1831    6.5422    0.0000 S   0  0  0  0  0  0  0  0  0  0  0  0
    4.4949    8.0095    0.0000 N   0  0  0  0  0  0  0  0  0  0  0  0
    5.6503    6.2304    0.0000 O   0  0  0  0  0  0  0  0  0  0  0  0
    2.7158    6.8541    0.0000 O   0  0  0  0  0  0  0  0  0  0  0  0
    2.4446    4.6115    0.0000 C   0  0  0  0  0  0  0  0  0  0  0  0
    0.3943    1.2135    0.0000 C   0  0  0  0  0  0  0  0  0  0  0  0
    1.2760    0.0000    0.0000 S   0  0  0  0  0  0  0  0  0  0  0  0
    0.3943   -1.2135    0.0000 C   0  0  0  0  0  0  0  0  0  0  0  0
   -1.0323   -0.7500    0.0000 C   0  0  0  0  0  0  0  0  0  0  0  0
   -2.2458   -1.6317    0.0000 C   0  0  0  0  0  0  0  0  0  0  0  0
   -3.6161   -1.0216    0.0000 C   0  0  0  0  0  0  0  0  0  0  0  0
   -4.8297   -1.9033    0.0000 C   0  0  0  0  0  0  0  0  0  0  0  0
   -4.6729   -3.3950    0.0000 C   0  0  0  0  0  0  0  0  0  0  0  0
   -5.8864   -4.2767    0.0000 F   0  0  0  0  0  0  0  0  0  0  0  0
   -3.3025   -4.0051    0.0000 C   0  0  0  0  0  0  0  0  0  0  0  0
   -3.1458   -5.4969    0.0000 Cl  0  0  0  0  0  0  0  0  0  0  0  0
   -2.0890   -3.1235    0.0000 C   0  0  0  0  0  0  0  0  0  0  0  0
   -1.0323    0.7500    0.0000 C   0  0  0  0  0  0  0  0  0  0  0  0
  1  2  1  0
  2  3  2  0
  3  4  1  0
  4  5  2  0
  5  6  1  0
  6  7  2  0
  7  8  1  0
  8  9  2  0
  9 10  1  0
 10 11  1  0
 11 12  1  0
 11 13  2  0
 11 14  2  0
 10 15  2  0
  5 16  1  0
 16 17  1  0
 17 18  1  0
 18 19  2  0
 19 20  1  0
 20 21  2  0
 21 22  1  0
 22 23  2  0
 23 24  1  0
 23 25  1  0
 25 26  1  0
 25 27  2  0
 19 28  1  0
 28  2  1  0
 15  6  1  0
 28 16  2  0
 27 20  1  0
M  END
>  <Compound_ID>  (720) 
CHEMBL241517

>  <Molecule Name>  (720) 
GW856804X

>  <Molecular Weight>  (720) 
433.92

>  <AlogP>  (720) 
4.65

>  <Smiles>  (720) 
Nc1ncc(-c2cccc(S(N)(=O)=O)c2)c2scc(-c3ccc(F)c(Cl)c3)c12

>  <Standard Type>  (720) 
Inhibition

>  <Standard Relation>  (720) 
'='

>  <Standard Units>  (720) 
%

>  <Standard Value>  (720) 
1.33

>  <Assay ChEMBL ID>  (720) 
CHEMBL1962184

>  <Assay Description>  (720) 
GSK_PKIS: TRKA mean inhibition at 0.1 uM [Nanosyn]

>  <BAO Format ID>  (720) 
BAO_0000357

>  <BAO Label>  (720) 
single protein format

>  <Assay Organism>  (720) 
None

>  <Target ChEMBL ID>  (720) 
CHEMBL2815

>  <Target Name>  (720) 
Nerve growth factor receptor Trk-A

>  <Target Organism>  (720) 
Homo sapiens

>  <Target Type>  (720) 
SINGLE PROTEIN

>  <Document ChEMBL ID>  (720) 
CHEMBL1961873

>  <Source Description>  (720) 
GSK Published Kinase Inhibitor Set

>  <Document Journal>  (720) 
nan

>  <Document Year>  (720) 
nan

>  <Active>  (720) 
0.0

>  <bits>  (720) 
<rdkit.DataStructs.cDataStructs.ExplicitBitVect object at 0x00000159F540DA80>

>  <Group>  (720) 
G2

$$$$

     RDKit          2D

 24 26  0  0  0  0  0  0  0  0999 V2000
   -3.7548   -2.1855    0.0000 C   0  0  0  0  0  0  0  0  0  0  0  0
   -2.6401   -3.1891    0.0000 C   0  0  0  0  0  0  0  0  0  0  0  0
   -1.2135   -2.7256    0.0000 N   0  0  0  0  0  0  0  0  0  0  0  0
   -0.0000   -3.6073    0.0000 C   0  0  0  0  0  0  0  0  0  0  0  0
   -0.0000   -5.1073    0.0000 C   0  0  0  0  0  0  0  0  0  0  0  0
    1.2135   -5.9890    0.0000 N   0  0  0  0  0  0  0  0  0  0  0  0
    0.7500   -7.4156    0.0000 O   0  0  0  0  0  0  0  0  0  0  0  0
   -0.7500   -7.4156    0.0000 N   0  0  0  0  0  0  0  0  0  0  0  0
   -1.2135   -5.9890    0.0000 C   0  0  0  0  0  0  0  0  0  0  0  0
   -2.6401   -5.5255    0.0000 N   0  0  0  0  0  0  0  0  0  0  0  0
    1.2135   -2.7256    0.0000 N   0  0  0  0  0  0  0  0  0  0  0  0
    0.7500   -1.2990    0.0000 C   0  0  0  0  0  0  0  0  0  0  0  0
    1.5000    0.0000    0.0000 C   0  0  0  0  0  0  0  0  0  0  0  0
    0.7500    1.2990    0.0000 N   0  0  0  0  0  0  0  0  0  0  0  0
   -0.7500    1.2990    0.0000 C   0  0  0  0  0  0  0  0  0  0  0  0
   -1.5000    0.0000    0.0000 C   0  0  0  0  0  0  0  0  0  0  0  0
   -3.0000    0.0000    0.0000 C   0  0  0  0  0  0  0  0  0  0  0  0
   -3.7500   -1.2990    0.0000 O   0  0  0  0  0  0  0  0  0  0  0  0
   -3.7500    1.2990    0.0000 N   0  0  0  0  0  0  0  0  0  0  0  0
   -5.2500    1.2990    0.0000 C   0  0  0  0  0  0  0  0  0  0  0  0
   -6.0000    2.5981    0.0000 C   0  0  0  0  0  0  0  0  0  0  0  0
   -7.5000    2.5981    0.0000 N   0  0  0  0  0  0  0  0  0  0  0  0
   -8.2500    3.8971    0.0000 C   0  0  0  0  0  0  0  0  0  0  0  0
   -0.7500   -1.2990    0.0000 C   0  0  0  0  0  0  0  0  0  0  0  0
  1  2  1  0
  2  3  1  0
  3  4  1  0
  4  5  1  0
  5  6  2  0
  6  7  1  0
  7  8  1  0
  8  9  2  0
  9 10  1  0
  4 11  2  0
 11 12  1  0
 12 13  2  0
 13 14  1  0
 14 15  2  0
 15 16  1  0
 16 17  1  0
 17 18  2  0
 17 19  1  0
 19 20  1  0
 20 21  1  0
 21 22  1  0
 22 23  1  0
 16 24  2  0
 24  3  1  0
  9  5  1  0
 24 12  1  0
M  END
>  <Compound_ID>  (721) 
CHEMBL506153

>  <Molecule Name>  (721) 
GW876790X

>  <Molecular Weight>  (721) 
330.35

>  <AlogP>  (721) 
0.03

>  <Smiles>  (721) 
CCn1c(-c2nonc2N)nc2cncc(C(=O)NCCNC)c21

>  <Standard Type>  (721) 
Inhibition

>  <Standard Relation>  (721) 
'='

>  <Standard Units>  (721) 
%

>  <Standard Value>  (721) 
1.96

>  <Assay ChEMBL ID>  (721) 
CHEMBL1962184

>  <Assay Description>  (721) 
GSK_PKIS: TRKA mean inhibition at 0.1 uM [Nanosyn]

>  <BAO Format ID>  (721) 
BAO_0000357

>  <BAO Label>  (721) 
single protein format

>  <Assay Organism>  (721) 
None

>  <Target ChEMBL ID>  (721) 
CHEMBL2815

>  <Target Name>  (721) 
Nerve growth factor receptor Trk-A

>  <Target Organism>  (721) 
Homo sapiens

>  <Target Type>  (721) 
SINGLE PROTEIN

>  <Document ChEMBL ID>  (721) 
CHEMBL1961873

>  <Source Description>  (721) 
GSK Published Kinase Inhibitor Set

>  <Document Journal>  (721) 
nan

>  <Document Year>  (721) 
nan

>  <Active>  (721) 
0.0

>  <bits>  (721) 
<rdkit.DataStructs.cDataStructs.ExplicitBitVect object at 0x00000159F540C7B0>

>  <Group>  (721) 
G2

$$$$

     RDKit          2D

 32 35  0  0  0  0  0  0  0  0999 V2000
   -2.5981   -8.1073    0.0000 C   0  0  0  0  0  0  0  0  0  0  0  0
   -1.2990   -7.3573    0.0000 O   0  0  0  0  0  0  0  0  0  0  0  0
   -1.2990   -5.8573    0.0000 C   0  0  0  0  0  0  0  0  0  0  0  0
   -2.5981   -5.1073    0.0000 O   0  0  0  0  0  0  0  0  0  0  0  0
   -0.0000   -5.1073    0.0000 N   0  0  0  0  0  0  0  0  0  0  0  0
   -0.0000   -3.6073    0.0000 C   0  0  0  0  0  0  0  0  0  0  0  0
    1.2135   -2.7256    0.0000 N   0  0  0  0  0  0  0  0  0  0  0  0
    0.7500   -1.2990    0.0000 C   0  0  0  0  0  0  0  0  0  0  0  0
    1.5000    0.0000    0.0000 C   0  0  0  0  0  0  0  0  0  0  0  0
    0.7500    1.2990    0.0000 C   0  0  0  0  0  0  0  0  0  0  0  0
   -0.7500    1.2990    0.0000 C   0  0  0  0  0  0  0  0  0  0  0  0
   -1.5000    2.5981    0.0000 O   0  0  0  0  0  0  0  0  0  0  0  0
   -0.7500    3.8971    0.0000 C   0  0  0  0  0  0  0  0  0  0  0  0
    0.7500    3.8971    0.0000 C   0  0  0  0  0  0  0  0  0  0  0  0
    1.5000    5.1962    0.0000 C   0  0  0  0  0  0  0  0  0  0  0  0
    0.7500    6.4952    0.0000 C   0  0  0  0  0  0  0  0  0  0  0  0
    1.5000    7.7942    0.0000 N   0  0  0  0  0  0  0  0  0  0  0  0
    3.0000    7.7942    0.0000 C   0  0  0  0  0  0  0  0  0  0  0  0
    3.7500    6.4952    0.0000 O   0  0  0  0  0  0  0  0  0  0  0  0
    3.7500    9.0933    0.0000 N   0  0  0  0  0  0  0  0  0  0  0  0
    5.2500    9.0933    0.0000 C   0  0  0  0  0  0  0  0  0  0  0  0
    6.0000    7.7942    0.0000 C   0  0  0  0  0  0  0  0  0  0  0  0
    7.5000    7.7942    0.0000 C   0  0  0  0  0  0  0  0  0  0  0  0
    8.2500    9.0933    0.0000 C   0  0  0  0  0  0  0  0  0  0  0  0
    7.5000   10.3923    0.0000 C   0  0  0  0  0  0  0  0  0  0  0  0
    8.2500   11.6913    0.0000 Cl  0  0  0  0  0  0  0  0  0  0  0  0
    6.0000   10.3923    0.0000 C   0  0  0  0  0  0  0  0  0  0  0  0
   -0.7500    6.4952    0.0000 C   0  0  0  0  0  0  0  0  0  0  0  0
   -1.5000    5.1962    0.0000 C   0  0  0  0  0  0  0  0  0  0  0  0
   -1.5000    0.0000    0.0000 C   0  0  0  0  0  0  0  0  0  0  0  0
   -0.7500   -1.2990    0.0000 C   0  0  0  0  0  0  0  0  0  0  0  0
   -1.2135   -2.7256    0.0000 N   0  0  0  0  0  0  0  0  0  0  0  0
  1  2  1  0
  2  3  1  0
  3  4  2  0
  3  5  1  0
  5  6  1  0
  6  7  2  0
  7  8  1  0
  8  9  2  0
  9 10  1  0
 10 11  2  0
 11 12  1  0
 12 13  1  0
 13 14  2  0
 14 15  1  0
 15 16  2  0
 16 17  1  0
 17 18  1  0
 18 19  2  0
 18 20  1  0
 20 21  1  0
 21 22  2  0
 22 23  1  0
 23 24  2  0
 24 25  1  0
 25 26  1  0
 25 27  2  0
 16 28  1  0
 28 29  2  0
 11 30  1  0
 30 31  2  0
 31 32  1  0
 32  6  1  0
 31  8  1  0
 29 13  1  0
 27 21  1  0
M  END
>  <Compound_ID>  (722) 
CHEMBL1909364

>  <Molecule Name>  (722) 
GW589961A

>  <Molecular Weight>  (722) 
488.33

>  <AlogP>  (722) 
5.83

>  <Smiles>  (722) 
COC(=O)Nc1nc2ccc(Oc3ccc(NC(=O)Nc4cccc(Cl)c4)cc3)cc2[nH]1

>  <Standard Type>  (722) 
Inhibition

>  <Standard Relation>  (722) 
'='

>  <Standard Units>  (722) 
%

>  <Standard Value>  (722) 
15.59

>  <Assay ChEMBL ID>  (722) 
CHEMBL1962184

>  <Assay Description>  (722) 
GSK_PKIS: TRKA mean inhibition at 0.1 uM [Nanosyn]

>  <BAO Format ID>  (722) 
BAO_0000357

>  <BAO Label>  (722) 
single protein format

>  <Assay Organism>  (722) 
None

>  <Target ChEMBL ID>  (722) 
CHEMBL2815

>  <Target Name>  (722) 
Nerve growth factor receptor Trk-A

>  <Target Organism>  (722) 
Homo sapiens

>  <Target Type>  (722) 
SINGLE PROTEIN

>  <Document ChEMBL ID>  (722) 
CHEMBL1961873

>  <Source Description>  (722) 
GSK Published Kinase Inhibitor Set

>  <Document Journal>  (722) 
nan

>  <Document Year>  (722) 
nan

>  <Active>  (722) 
0.0

>  <bits>  (722) 
<rdkit.DataStructs.cDataStructs.ExplicitBitVect object at 0x00000159F540FDF0>

>  <Group>  (722) 
G2

$$$$

     RDKit          2D

 32 35  0  0  0  0  0  0  0  0999 V2000
    1.3299    5.6152    0.0000 C   0  0  0  0  0  0  0  0  0  0  0  0
   -0.0967    5.1517    0.0000 O   0  0  0  0  0  0  0  0  0  0  0  0
   -0.4086    3.6844    0.0000 C   0  0  0  0  0  0  0  0  0  0  0  0
    0.7062    2.6807    0.0000 C   0  0  0  0  0  0  0  0  0  0  0  0
    0.3943    1.2135    0.0000 C   0  0  0  0  0  0  0  0  0  0  0  0
    1.2760    0.0000    0.0000 N   0  0  0  0  0  0  0  0  0  0  0  0
    0.3943   -1.2135    0.0000 C   0  0  0  0  0  0  0  0  0  0  0  0
   -1.0323   -0.7500    0.0000 N   0  0  0  0  0  0  0  0  0  0  0  0
   -2.2458   -1.6317    0.0000 C   0  0  0  0  0  0  0  0  0  0  0  0
   -2.2458   -3.1317    0.0000 C   0  0  0  0  0  0  0  0  0  0  0  0
   -3.6724   -3.5952    0.0000 C   0  0  0  0  0  0  0  0  0  0  0  0
   -4.1359   -5.0218    0.0000 O   0  0  0  0  0  0  0  0  0  0  0  0
   -5.6031   -5.3337    0.0000 C   0  0  0  0  0  0  0  0  0  0  0  0
   -6.0667   -6.7602    0.0000 C   0  0  0  0  0  0  0  0  0  0  0  0
   -7.5339   -7.0721    0.0000 C   0  0  0  0  0  0  0  0  0  0  0  0
   -7.9974   -8.4987    0.0000 C   0  0  0  0  0  0  0  0  0  0  0  0
   -6.9937   -9.6134    0.0000 C   0  0  0  0  0  0  0  0  0  0  0  0
   -5.5265   -9.3015    0.0000 C   0  0  0  0  0  0  0  0  0  0  0  0
   -5.0630   -7.8750    0.0000 C   0  0  0  0  0  0  0  0  0  0  0  0
   -3.5958   -7.5631    0.0000 S   0  0  0  0  0  0  0  0  0  0  0  0
   -2.1285   -7.2512    0.0000 C   0  0  0  0  0  0  0  0  0  0  0  0
   -3.9076   -6.0959    0.0000 O   0  0  0  0  0  0  0  0  0  0  0  0
   -3.2839   -9.0303    0.0000 O   0  0  0  0  0  0  0  0  0  0  0  0
   -4.5541   -2.3817    0.0000 C   0  0  0  0  0  0  0  0  0  0  0  0
   -6.0541   -2.3817    0.0000 C   0  0  0  0  0  0  0  0  0  0  0  0
   -7.5541   -2.3817    0.0000 N   0  0  0  0  0  0  0  0  0  0  0  0
   -3.6724   -1.1682    0.0000 S   0  0  0  0  0  0  0  0  0  0  0  0
   -1.0323    0.7500    0.0000 C   0  0  0  0  0  0  0  0  0  0  0  0
   -2.1470    1.7537    0.0000 C   0  0  0  0  0  0  0  0  0  0  0  0
   -1.8351    3.2209    0.0000 C   0  0  0  0  0  0  0  0  0  0  0  0
   -2.9499    4.2246    0.0000 O   0  0  0  0  0  0  0  0  0  0  0  0
   -4.3764    3.7611    0.0000 C   0  0  0  0  0  0  0  0  0  0  0  0
  1  2  1  0
  2  3  1  0
  3  4  2  0
  4  5  1  0
  5  6  1  0
  6  7  2  0
  7  8  1  0
  8  9  1  0
  9 10  2  0
 10 11  1  0
 11 12  1  0
 12 13  1  0
 13 14  1  0
 14 15  2  0
 15 16  1  0
 16 17  2  0
 17 18  1  0
 18 19  2  0
 19 20  1  0
 20 21  1  0
 20 22  2  0
 20 23  2  0
 11 24  2  0
 24 25  1  0
 25 26  3  0
 24 27  1  0
  8 28  1  0
 28 29  1  0
 29 30  2  0
 30 31  1  0
 31 32  1  0
 30  3  1  0
 28  5  2  0
 27  9  1  0
 19 14  1  0
M  END
>  <Compound_ID>  (723) 
CHEMBL373751

>  <Molecule Name>  (723) 
GSK-319347A

>  <Molecular Weight>  (723) 
469.54

>  <AlogP>  (723) 
3.96

>  <Smiles>  (723) 
COc1cc2ncn(-c3cc(OCc4ccccc4S(C)(=O)=O)c(C#N)s3)c2cc1OC

>  <Standard Type>  (723) 
Inhibition

>  <Standard Relation>  (723) 
'='

>  <Standard Units>  (723) 
%

>  <Standard Value>  (723) 
5.48

>  <Assay ChEMBL ID>  (723) 
CHEMBL1962184

>  <Assay Description>  (723) 
GSK_PKIS: TRKA mean inhibition at 0.1 uM [Nanosyn]

>  <BAO Format ID>  (723) 
BAO_0000357

>  <BAO Label>  (723) 
single protein format

>  <Assay Organism>  (723) 
None

>  <Target ChEMBL ID>  (723) 
CHEMBL2815

>  <Target Name>  (723) 
Nerve growth factor receptor Trk-A

>  <Target Organism>  (723) 
Homo sapiens

>  <Target Type>  (723) 
SINGLE PROTEIN

>  <Document ChEMBL ID>  (723) 
CHEMBL1961873

>  <Source Description>  (723) 
GSK Published Kinase Inhibitor Set

>  <Document Journal>  (723) 
nan

>  <Document Year>  (723) 
nan

>  <Active>  (723) 
0.0

>  <bits>  (723) 
<rdkit.DataStructs.cDataStructs.ExplicitBitVect object at 0x00000159F540D3F0>

>  <Group>  (723) 
G2

$$$$

     RDKit          2D

 31 35  0  0  0  0  0  0  0  0999 V2000
   12.7500   -1.2990    0.0000 F   0  0  0  0  0  0  0  0  0  0  0  0
   12.0000   -2.5981    0.0000 C   0  0  0  0  0  0  0  0  0  0  0  0
   12.7500   -3.8971    0.0000 C   0  0  0  0  0  0  0  0  0  0  0  0
   12.0000   -5.1962    0.0000 C   0  0  0  0  0  0  0  0  0  0  0  0
   10.5000   -5.1962    0.0000 C   0  0  0  0  0  0  0  0  0  0  0  0
    9.7500   -3.8971    0.0000 C   0  0  0  0  0  0  0  0  0  0  0  0
    8.2500   -3.8971    0.0000 C   0  0  0  0  0  0  0  0  0  0  0  0
    7.5000   -2.5981    0.0000 O   0  0  0  0  0  0  0  0  0  0  0  0
    6.0000   -2.5981    0.0000 C   0  0  0  0  0  0  0  0  0  0  0  0
    5.2500   -1.2990    0.0000 C   0  0  0  0  0  0  0  0  0  0  0  0
    3.7500   -1.2990    0.0000 C   0  0  0  0  0  0  0  0  0  0  0  0
    3.0000   -2.5981    0.0000 C   0  0  0  0  0  0  0  0  0  0  0  0
    1.5000   -2.5981    0.0000 N   0  0  0  0  0  0  0  0  0  0  0  0
    0.7500   -1.2990    0.0000 C   0  0  0  0  0  0  0  0  0  0  0  0
    1.5000    0.0000    0.0000 N   0  0  0  0  0  0  0  0  0  0  0  0
    0.7500    1.2990    0.0000 C   0  0  0  0  0  0  0  0  0  0  0  0
   -0.7500    1.2990    0.0000 N   0  0  0  0  0  0  0  0  0  0  0  0
   -1.5000    0.0000    0.0000 C   0  0  0  0  0  0  0  0  0  0  0  0
   -2.9672   -0.3119    0.0000 C   0  0  0  0  0  0  0  0  0  0  0  0
   -3.1240   -1.8037    0.0000 C   0  0  0  0  0  0  0  0  0  0  0  0
   -4.4231   -2.5537    0.0000 C   0  0  0  0  0  0  0  0  0  0  0  0
   -4.5798   -4.0454    0.0000 C   0  0  0  0  0  0  0  0  0  0  0  0
   -6.0471   -4.3573    0.0000 C   0  0  0  0  0  0  0  0  0  0  0  0
   -6.7971   -3.0583    0.0000 C   0  0  0  0  0  0  0  0  0  0  0  0
   -5.7934   -1.9435    0.0000 N   0  0  0  0  0  0  0  0  0  0  0  0
   -1.7537   -2.4138    0.0000 S   0  0  0  0  0  0  0  0  0  0  0  0
   -0.7500   -1.2990    0.0000 C   0  0  0  0  0  0  0  0  0  0  0  0
    3.7500   -3.8971    0.0000 C   0  0  0  0  0  0  0  0  0  0  0  0
    5.2500   -3.8971    0.0000 C   0  0  0  0  0  0  0  0  0  0  0  0
    6.0000   -5.1962    0.0000 Cl  0  0  0  0  0  0  0  0  0  0  0  0
   10.5000   -2.5981    0.0000 C   0  0  0  0  0  0  0  0  0  0  0  0
  1  2  1  0
  2  3  2  0
  3  4  1  0
  4  5  2  0
  5  6  1  0
  6  7  1  0
  7  8  1  0
  8  9  1  0
  9 10  2  0
 10 11  1  0
 11 12  2  0
 12 13  1  0
 13 14  1  0
 14 15  2  0
 15 16  1  0
 16 17  2  0
 17 18  1  0
 18 19  1  0
 19 20  2  0
 20 21  1  0
 21 22  2  0
 22 23  1  0
 23 24  2  0
 24 25  1  0
 20 26  1  0
 26 27  1  0
 12 28  1  0
 28 29  2  0
 29 30  1  0
  6 31  2  0
 31  2  1  0
 29  9  1  0
 27 14  1  0
 27 18  2  0
 25 21  1  0
M  END
>  <Compound_ID>  (724) 
CHEMBL1909415

>  <Molecule Name>  (724) 
GW693881A

>  <Molecular Weight>  (724) 
487.39

>  <AlogP>  (724) 
6.8

>  <Smiles>  (724) 
Fc1cccc(COc2ccc(Nc3ncnc4cc(-c5ccc[nH]5)sc34)cc2Cl)c1

>  <Standard Type>  (724) 
Inhibition

>  <Standard Relation>  (724) 
'='

>  <Standard Units>  (724) 
%

>  <Standard Value>  (724) 
2.39

>  <Assay ChEMBL ID>  (724) 
CHEMBL1962184

>  <Assay Description>  (724) 
GSK_PKIS: TRKA mean inhibition at 0.1 uM [Nanosyn]

>  <BAO Format ID>  (724) 
BAO_0000357

>  <BAO Label>  (724) 
single protein format

>  <Assay Organism>  (724) 
None

>  <Target ChEMBL ID>  (724) 
CHEMBL2815

>  <Target Name>  (724) 
Nerve growth factor receptor Trk-A

>  <Target Organism>  (724) 
Homo sapiens

>  <Target Type>  (724) 
SINGLE PROTEIN

>  <Document ChEMBL ID>  (724) 
CHEMBL1961873

>  <Source Description>  (724) 
GSK Published Kinase Inhibitor Set

>  <Document Journal>  (724) 
nan

>  <Document Year>  (724) 
nan

>  <Active>  (724) 
0.0

>  <bits>  (724) 
<rdkit.DataStructs.cDataStructs.ExplicitBitVect object at 0x00000159F540DA10>

>  <Group>  (724) 
G2

$$$$

     RDKit          2D

 23 26  0  0  0  0  0  0  0  0999 V2000
   -4.6740   -7.4303    0.0000 N   0  0  0  0  0  0  0  0  0  0  0  0
   -3.3037   -6.8202    0.0000 C   0  0  0  0  0  0  0  0  0  0  0  0
   -2.0046   -7.5702    0.0000 N   0  0  0  0  0  0  0  0  0  0  0  0
   -0.8899   -6.5665    0.0000 C   0  0  0  0  0  0  0  0  0  0  0  0
    0.5773   -6.8783    0.0000 C   0  0  0  0  0  0  0  0  0  0  0  0
    1.0409   -8.3049    0.0000 C   0  0  0  0  0  0  0  0  0  0  0  0
    2.5081   -8.6168    0.0000 C   0  0  0  0  0  0  0  0  0  0  0  0
    3.5118   -7.5021    0.0000 C   0  0  0  0  0  0  0  0  0  0  0  0
    4.9790   -7.8139    0.0000 F   0  0  0  0  0  0  0  0  0  0  0  0
    3.0482   -6.0755    0.0000 C   0  0  0  0  0  0  0  0  0  0  0  0
    1.5810   -5.7636    0.0000 C   0  0  0  0  0  0  0  0  0  0  0  0
   -1.5000   -5.1962    0.0000 C   0  0  0  0  0  0  0  0  0  0  0  0
   -0.7500   -3.8971    0.0000 C   0  0  0  0  0  0  0  0  0  0  0  0
    0.7500   -3.8971    0.0000 C   0  0  0  0  0  0  0  0  0  0  0  0
    1.5000   -2.5981    0.0000 C   0  0  0  0  0  0  0  0  0  0  0  0
    0.7500   -1.2990    0.0000 C   0  0  0  0  0  0  0  0  0  0  0  0
    1.5000    0.0000    0.0000 N   0  0  0  0  0  0  0  0  0  0  0  0
    0.7500    1.2990    0.0000 C   0  0  0  0  0  0  0  0  0  0  0  0
   -0.7500    1.2990    0.0000 C   0  0  0  0  0  0  0  0  0  0  0  0
   -1.5000    0.0000    0.0000 C   0  0  0  0  0  0  0  0  0  0  0  0
   -0.7500   -1.2990    0.0000 C   0  0  0  0  0  0  0  0  0  0  0  0
   -1.5000   -2.5981    0.0000 N   0  0  0  0  0  0  0  0  0  0  0  0
   -2.9918   -5.3529    0.0000 S   0  0  0  0  0  0  0  0  0  0  0  0
  1  2  1  0
  2  3  2  0
  3  4  1  0
  4  5  1  0
  5  6  2  0
  6  7  1  0
  7  8  2  0
  8  9  1  0
  8 10  1  0
 10 11  2  0
  4 12  2  0
 12 13  1  0
 13 14  2  0
 14 15  1  0
 15 16  2  0
 16 17  1  0
 17 18  2  0
 18 19  1  0
 19 20  2  0
 20 21  1  0
 21 22  2  0
 12 23  1  0
 23  2  1  0
 11  5  1  0
 22 13  1  0
 21 16  1  0
M  END
>  <Compound_ID>  (725) 
CHEMBL361237

>  <Molecule Name>  (725) 
GW785804X

>  <Molecular Weight>  (725) 
322.37

>  <AlogP>  (725) 
4.14

>  <Smiles>  (725) 
Nc1nc(-c2ccc(F)cc2)c(-c2ccc3ncccc3n2)s1

>  <Standard Type>  (725) 
Inhibition

>  <Standard Relation>  (725) 
'='

>  <Standard Units>  (725) 
%

>  <Standard Value>  (725) 
4.77

>  <Assay ChEMBL ID>  (725) 
CHEMBL1962185

>  <Assay Description>  (725) 
GSK_PKIS: TRKA mean inhibition at 1 uM [Nanosyn]

>  <BAO Format ID>  (725) 
BAO_0000357

>  <BAO Label>  (725) 
single protein format

>  <Assay Organism>  (725) 
None

>  <Target ChEMBL ID>  (725) 
CHEMBL2815

>  <Target Name>  (725) 
Nerve growth factor receptor Trk-A

>  <Target Organism>  (725) 
Homo sapiens

>  <Target Type>  (725) 
SINGLE PROTEIN

>  <Document ChEMBL ID>  (725) 
CHEMBL1961873

>  <Source Description>  (725) 
GSK Published Kinase Inhibitor Set

>  <Document Journal>  (725) 
nan

>  <Document Year>  (725) 
nan

>  <Active>  (725) 
0.0

>  <bits>  (725) 
<rdkit.DataStructs.cDataStructs.ExplicitBitVect object at 0x00000159F540C6D0>

>  <Group>  (725) 
G2

$$$$

     RDKit          2D

 31 35  0  0  0  0  0  0  0  0999 V2000
    3.0000    0.0000    0.0000 F   0  0  0  0  0  0  0  0  0  0  0  0
    1.5000    0.0000    0.0000 C   0  0  0  0  0  0  0  0  0  0  0  0
    0.7500   -1.2990    0.0000 C   0  0  0  0  0  0  0  0  0  0  0  0
   -0.7500   -1.2990    0.0000 C   0  0  0  0  0  0  0  0  0  0  0  0
   -1.5000    0.0000    0.0000 C   0  0  0  0  0  0  0  0  0  0  0  0
   -3.0000    0.0000    0.0000 C   0  0  0  0  0  0  0  0  0  0  0  0
   -3.8817   -1.2135    0.0000 N   0  0  0  0  0  0  0  0  0  0  0  0
   -5.3083   -0.7500    0.0000 C   0  0  0  0  0  0  0  0  0  0  0  0
   -5.3083    0.7500    0.0000 N   0  0  0  0  0  0  0  0  0  0  0  0
   -6.5218    1.6317    0.0000 C   0  0  0  0  0  0  0  0  0  0  0  0
   -6.3650    3.1235    0.0000 C   0  0  0  0  0  0  0  0  0  0  0  0
   -7.5785    4.0051    0.0000 C   0  0  0  0  0  0  0  0  0  0  0  0
   -8.9488    3.3950    0.0000 N   0  0  0  0  0  0  0  0  0  0  0  0
   -9.1056    1.9033    0.0000 C   0  0  0  0  0  0  0  0  0  0  0  0
   -7.8921    1.0216    0.0000 C   0  0  0  0  0  0  0  0  0  0  0  0
   -3.8817    1.2135    0.0000 C   0  0  0  0  0  0  0  0  0  0  0  0
   -3.4182    2.6401    0.0000 C   0  0  0  0  0  0  0  0  0  0  0  0
   -1.9509    2.9520    0.0000 C   0  0  0  0  0  0  0  0  0  0  0  0
   -1.4874    4.3786    0.0000 C   0  0  0  0  0  0  0  0  0  0  0  0
   -2.4911    5.4933    0.0000 N   0  0  0  0  0  0  0  0  0  0  0  0
   -3.9583    5.1814    0.0000 C   0  0  0  0  0  0  0  0  0  0  0  0
   -4.9620    6.2961    0.0000 O   0  0  0  0  0  0  0  0  0  0  0  0
   -4.4985    7.7227    0.0000 C   0  0  0  0  0  0  0  0  0  0  0  0
   -3.0313    8.0346    0.0000 C   0  0  0  0  0  0  0  0  0  0  0  0
   -2.5677    9.4612    0.0000 C   0  0  0  0  0  0  0  0  0  0  0  0
   -3.5714   10.5759    0.0000 C   0  0  0  0  0  0  0  0  0  0  0  0
   -5.0387   10.2640    0.0000 C   0  0  0  0  0  0  0  0  0  0  0  0
   -5.5022    8.8374    0.0000 C   0  0  0  0  0  0  0  0  0  0  0  0
   -4.4218    3.7548    0.0000 N   0  0  0  0  0  0  0  0  0  0  0  0
   -0.7500    1.2990    0.0000 C   0  0  0  0  0  0  0  0  0  0  0  0
    0.7500    1.2990    0.0000 C   0  0  0  0  0  0  0  0  0  0  0  0
  1  2  1  0
  2  3  2  0
  3  4  1  0
  4  5  2  0
  5  6  1  0
  6  7  1  0
  7  8  2  0
  8  9  1  0
  9 10  1  0
 10 11  1  0
 11 12  1  0
 12 13  1  0
 13 14  1  0
 14 15  1  0
  9 16  1  0
 16 17  1  0
 17 18  2  0
 18 19  1  0
 19 20  2  0
 20 21  1  0
 21 22  1  0
 22 23  1  0
 23 24  2  0
 24 25  1  0
 25 26  2  0
 26 27  1  0
 27 28  2  0
 21 29  2  0
  5 30  1  0
 30 31  2  0
 31  2  1  0
 16  6  2  0
 29 17  1  0
 15 10  1  0
 28 23  1  0
M  END
>  <Compound_ID>  (726) 
CHEMBL275798

>  <Molecule Name>  (726) 
nan

>  <Molecular Weight>  (726) 
415.47

>  <AlogP>  (726) 
4.86

>  <Smiles>  (726) 
Fc1ccc(-c2ncn(C3CCNCC3)c2-c2ccnc(Oc3ccccc3)n2)cc1

>  <Standard Type>  (726) 
Inhibition

>  <Standard Relation>  (726) 
'='

>  <Standard Units>  (726) 
%

>  <Standard Value>  (726) 
1.92

>  <Assay ChEMBL ID>  (726) 
CHEMBL1962184

>  <Assay Description>  (726) 
GSK_PKIS: TRKA mean inhibition at 0.1 uM [Nanosyn]

>  <BAO Format ID>  (726) 
BAO_0000357

>  <BAO Label>  (726) 
single protein format

>  <Assay Organism>  (726) 
None

>  <Target ChEMBL ID>  (726) 
CHEMBL2815

>  <Target Name>  (726) 
Nerve growth factor receptor Trk-A

>  <Target Organism>  (726) 
Homo sapiens

>  <Target Type>  (726) 
SINGLE PROTEIN

>  <Document ChEMBL ID>  (726) 
CHEMBL1961873

>  <Source Description>  (726) 
GSK Published Kinase Inhibitor Set

>  <Document Journal>  (726) 
nan

>  <Document Year>  (726) 
nan

>  <Active>  (726) 
0.0

>  <bits>  (726) 
<rdkit.DataStructs.cDataStructs.ExplicitBitVect object at 0x00000159F540E880>

>  <Group>  (726) 
G2

$$$$

     RDKit          2D

 21 24  0  0  0  0  0  0  0  0999 V2000
    5.2484    6.2402    0.0000 F   0  0  0  0  0  0  0  0  0  0  0  0
    4.0349    5.3586    0.0000 C   0  0  0  0  0  0  0  0  0  0  0  0
    4.1917    3.8668    0.0000 C   0  0  0  0  0  0  0  0  0  0  0  0
    2.9781    2.9851    0.0000 C   0  0  0  0  0  0  0  0  0  0  0  0
    1.6078    3.5952    0.0000 C   0  0  0  0  0  0  0  0  0  0  0  0
    0.3943    2.7135    0.0000 C   0  0  0  0  0  0  0  0  0  0  0  0
   -1.0323    3.1771    0.0000 C   0  0  0  0  0  0  0  0  0  0  0  0
   -1.4958    4.6036    0.0000 C   0  0  0  0  0  0  0  0  0  0  0  0
   -0.4921    5.7184    0.0000 C   0  0  0  0  0  0  0  0  0  0  0  0
   -0.9556    7.1449    0.0000 C   0  0  0  0  0  0  0  0  0  0  0  0
   -2.4229    7.4568    0.0000 N   0  0  0  0  0  0  0  0  0  0  0  0
   -3.4266    6.3421    0.0000 C   0  0  0  0  0  0  0  0  0  0  0  0
   -2.9630    4.9155    0.0000 C   0  0  0  0  0  0  0  0  0  0  0  0
   -1.9140    1.9635    0.0000 N   0  0  0  0  0  0  0  0  0  0  0  0
   -1.0323    0.7500    0.0000 C   0  0  0  0  0  0  0  0  0  0  0  0
    0.3943    1.2135    0.0000 N   0  0  0  0  0  0  0  0  0  0  0  0
    1.2760    0.0000    0.0000 C   0  0  0  0  0  0  0  0  0  0  0  0
    0.3943   -1.2135    0.0000 C   0  0  0  0  0  0  0  0  0  0  0  0
   -1.0323   -0.7500    0.0000 S   0  0  0  0  0  0  0  0  0  0  0  0
    1.4510    5.0870    0.0000 C   0  0  0  0  0  0  0  0  0  0  0  0
    2.6646    5.9687    0.0000 C   0  0  0  0  0  0  0  0  0  0  0  0
  1  2  1  0
  2  3  2  0
  3  4  1  0
  4  5  2  0
  5  6  1  0
  6  7  2  0
  7  8  1  0
  8  9  2  0
  9 10  1  0
 10 11  2  0
 11 12  1  0
 12 13  2  0
  7 14  1  0
 14 15  2  0
 15 16  1  0
 16 17  1  0
 17 18  1  0
 18 19  1  0
  5 20  1  0
 20 21  2  0
 21  2  1  0
 16  6  1  0
 13  8  1  0
 19 15  1  0
M  END
>  <Compound_ID>  (727) 
CHEMBL266707

>  <Molecule Name>  (727) 
nan

>  <Molecular Weight>  (727) 
297.36

>  <AlogP>  (727) 
3.86

>  <Smiles>  (727) 
Fc1ccc(-c2c(-c3ccncc3)nc3n2CCS3)cc1

>  <Standard Type>  (727) 
Inhibition

>  <Standard Relation>  (727) 
'='

>  <Standard Units>  (727) 
%

>  <Standard Value>  (727) 
-0.43

>  <Assay ChEMBL ID>  (727) 
CHEMBL1962185

>  <Assay Description>  (727) 
GSK_PKIS: TRKA mean inhibition at 1 uM [Nanosyn]

>  <BAO Format ID>  (727) 
BAO_0000357

>  <BAO Label>  (727) 
single protein format

>  <Assay Organism>  (727) 
None

>  <Target ChEMBL ID>  (727) 
CHEMBL2815

>  <Target Name>  (727) 
Nerve growth factor receptor Trk-A

>  <Target Organism>  (727) 
Homo sapiens

>  <Target Type>  (727) 
SINGLE PROTEIN

>  <Document ChEMBL ID>  (727) 
CHEMBL1961873

>  <Source Description>  (727) 
GSK Published Kinase Inhibitor Set

>  <Document Journal>  (727) 
nan

>  <Document Year>  (727) 
nan

>  <Active>  (727) 
0.0

>  <bits>  (727) 
<rdkit.DataStructs.cDataStructs.ExplicitBitVect object at 0x00000159F540C5F0>

>  <Group>  (727) 
G2

$$$$

     RDKit          2D

 39 43  0  0  0  0  0  0  0  0999 V2000
   -5.4969  -12.5290    0.0000 C   0  0  0  0  0  0  0  0  0  0  0  0
   -4.0051  -12.6858    0.0000 N   0  0  0  0  0  0  0  0  0  0  0  0
   -3.3950  -14.0561    0.0000 C   0  0  0  0  0  0  0  0  0  0  0  0
   -3.1235  -11.4723    0.0000 C   0  0  0  0  0  0  0  0  0  0  0  0
   -3.7336  -10.1020    0.0000 O   0  0  0  0  0  0  0  0  0  0  0  0
   -1.6317  -11.6291    0.0000 O   0  0  0  0  0  0  0  0  0  0  0  0
   -0.7500  -10.4156    0.0000 C   0  0  0  0  0  0  0  0  0  0  0  0
    0.7500  -10.4156    0.0000 C   0  0  0  0  0  0  0  0  0  0  0  0
    1.2135   -8.9890    0.0000 N   0  0  0  0  0  0  0  0  0  0  0  0
    0.0000   -8.1073    0.0000 C   0  0  0  0  0  0  0  0  0  0  0  0
   -0.0000   -6.6073    0.0000 C   0  0  0  0  0  0  0  0  0  0  0  0
   -0.0000   -5.1073    0.0000 C   0  0  0  0  0  0  0  0  0  0  0  0
   -0.0000   -3.6073    0.0000 C   0  0  0  0  0  0  0  0  0  0  0  0
    1.2135   -2.7256    0.0000 C   0  0  0  0  0  0  0  0  0  0  0  0
    0.7500   -1.2990    0.0000 C   0  0  0  0  0  0  0  0  0  0  0  0
    1.5000    0.0000    0.0000 N   0  0  0  0  0  0  0  0  0  0  0  0
    0.7500    1.2990    0.0000 C   0  0  0  0  0  0  0  0  0  0  0  0
   -0.7500    1.2990    0.0000 N   0  0  0  0  0  0  0  0  0  0  0  0
   -1.5000    0.0000    0.0000 C   0  0  0  0  0  0  0  0  0  0  0  0
   -3.0000    0.0000    0.0000 N   0  0  0  0  0  0  0  0  0  0  0  0
   -3.7500    1.2990    0.0000 C   0  0  0  0  0  0  0  0  0  0  0  0
   -3.0000    2.5981    0.0000 C   0  0  0  0  0  0  0  0  0  0  0  0
   -3.7500    3.8971    0.0000 C   0  0  0  0  0  0  0  0  0  0  0  0
   -5.2500    3.8971    0.0000 C   0  0  0  0  0  0  0  0  0  0  0  0
   -6.0000    5.1962    0.0000 O   0  0  0  0  0  0  0  0  0  0  0  0
   -5.2500    6.4952    0.0000 C   0  0  0  0  0  0  0  0  0  0  0  0
   -6.0000    7.7942    0.0000 C   0  0  0  0  0  0  0  0  0  0  0  0
   -5.2500    9.0933    0.0000 C   0  0  0  0  0  0  0  0  0  0  0  0
   -6.0000   10.3923    0.0000 C   0  0  0  0  0  0  0  0  0  0  0  0
   -7.5000   10.3923    0.0000 C   0  0  0  0  0  0  0  0  0  0  0  0
   -8.2500    9.0933    0.0000 C   0  0  0  0  0  0  0  0  0  0  0  0
   -9.7500    9.0933    0.0000 F   0  0  0  0  0  0  0  0  0  0  0  0
   -7.5000    7.7942    0.0000 C   0  0  0  0  0  0  0  0  0  0  0  0
   -6.0000    2.5981    0.0000 C   0  0  0  0  0  0  0  0  0  0  0  0
   -7.5000    2.5981    0.0000 Cl  0  0  0  0  0  0  0  0  0  0  0  0
   -5.2500    1.2990    0.0000 C   0  0  0  0  0  0  0  0  0  0  0  0
   -0.7500   -1.2990    0.0000 C   0  0  0  0  0  0  0  0  0  0  0  0
   -1.2135   -2.7256    0.0000 S   0  0  0  0  0  0  0  0  0  0  0  0
   -1.2135   -8.9890    0.0000 C   0  0  0  0  0  0  0  0  0  0  0  0
  1  2  1  0
  2  3  1  0
  2  4  1  0
  4  5  2  0
  4  6  1  0
  7  6  1  1
  7  8  1  0
  8  9  1  0
  9 10  1  0
 10 11  1  6
 11 12  3  0
 12 13  1  0
 13 14  2  0
 14 15  1  0
 15 16  2  0
 16 17  1  0
 17 18  2  0
 18 19  1  0
 19 20  1  0
 20 21  1  0
 21 22  2  0
 22 23  1  0
 23 24  2  0
 24 25  1  0
 25 26  1  0
 26 27  1  0
 27 28  2  0
 28 29  1  0
 29 30  2  0
 30 31  1  0
 31 32  1  0
 31 33  2  0
 24 34  1  0
 34 35  1  0
 34 36  2  0
 19 37  2  0
 37 38  1  0
 10 39  1  0
 39  7  1  0
 38 13  1  0
 37 15  1  0
 36 21  1  0
 33 27  1  0
M  END
>  <Compound_ID>  (728) 
CHEMBL466412

>  <Molecule Name>  (728) 
GSK-238063A

>  <Molecular Weight>  (728) 
566.06

>  <AlogP>  (728) 
5.59

>  <Smiles>  (728) 
CN(C)C(=O)O[C@@H]1CN[C@@H](C#Cc2cc3ncnc(Nc4ccc(OCc5cccc(F)c5)c(Cl)c4)c3s2)C1

>  <Standard Type>  (728) 
Inhibition

>  <Standard Relation>  (728) 
'='

>  <Standard Units>  (728) 
%

>  <Standard Value>  (728) 
-3.09

>  <Assay ChEMBL ID>  (728) 
CHEMBL1962184

>  <Assay Description>  (728) 
GSK_PKIS: TRKA mean inhibition at 0.1 uM [Nanosyn]

>  <BAO Format ID>  (728) 
BAO_0000357

>  <BAO Label>  (728) 
single protein format

>  <Assay Organism>  (728) 
None

>  <Target ChEMBL ID>  (728) 
CHEMBL2815

>  <Target Name>  (728) 
Nerve growth factor receptor Trk-A

>  <Target Organism>  (728) 
Homo sapiens

>  <Target Type>  (728) 
SINGLE PROTEIN

>  <Document ChEMBL ID>  (728) 
CHEMBL1961873

>  <Source Description>  (728) 
GSK Published Kinase Inhibitor Set

>  <Document Journal>  (728) 
nan

>  <Document Year>  (728) 
nan

>  <Active>  (728) 
0.0

>  <bits>  (728) 
<rdkit.DataStructs.cDataStructs.ExplicitBitVect object at 0x00000159F540CB30>

>  <Group>  (728) 
G2

$$$$

     RDKit          2D

 32 36  0  0  0  0  0  0  0  0999 V2000
    3.0000    0.0000    0.0000 C   0  0  0  0  0  0  0  0  0  0  0  0
    1.5000    0.0000    0.0000 N   0  0  0  0  0  0  0  0  0  0  0  0
    0.7500   -1.2990    0.0000 C   0  0  0  0  0  0  0  0  0  0  0  0
   -0.7500   -1.2990    0.0000 C   0  0  0  0  0  0  0  0  0  0  0  0
   -1.5000    0.0000    0.0000 C   0  0  0  0  0  0  0  0  0  0  0  0
   -3.0000    0.0000    0.0000 N   0  0  0  0  0  0  0  0  0  0  0  0
   -3.8817   -1.2135    0.0000 C   0  0  0  0  0  0  0  0  0  0  0  0
   -5.3083   -0.7500    0.0000 N   0  0  0  0  0  0  0  0  0  0  0  0
   -5.3083    0.7500    0.0000 C   0  0  0  0  0  0  0  0  0  0  0  0
   -6.5218    1.6317    0.0000 C   0  0  0  0  0  0  0  0  0  0  0  0
   -6.3650    3.1235    0.0000 C   0  0  0  0  0  0  0  0  0  0  0  0
   -7.5785    4.0051    0.0000 C   0  0  0  0  0  0  0  0  0  0  0  0
   -8.9488    3.3950    0.0000 C   0  0  0  0  0  0  0  0  0  0  0  0
  -10.1624    4.2767    0.0000 F   0  0  0  0  0  0  0  0  0  0  0  0
   -9.1056    1.9033    0.0000 C   0  0  0  0  0  0  0  0  0  0  0  0
   -7.8921    1.0216    0.0000 C   0  0  0  0  0  0  0  0  0  0  0  0
   -3.8817    1.2135    0.0000 C   0  0  0  0  0  0  0  0  0  0  0  0
   -3.4182    2.6401    0.0000 C   0  0  0  0  0  0  0  0  0  0  0  0
   -1.9509    2.9520    0.0000 C   0  0  0  0  0  0  0  0  0  0  0  0
   -1.4874    4.3786    0.0000 C   0  0  0  0  0  0  0  0  0  0  0  0
   -2.4911    5.4933    0.0000 N   0  0  0  0  0  0  0  0  0  0  0  0
   -3.9583    5.1814    0.0000 C   0  0  0  0  0  0  0  0  0  0  0  0
   -4.9620    6.2961    0.0000 N   0  0  0  0  0  0  0  0  0  0  0  0
   -4.4985    7.7227    0.0000 C   0  0  0  0  0  0  0  0  0  0  0  0
   -3.0313    8.0346    0.0000 C   0  0  0  0  0  0  0  0  0  0  0  0
   -2.5677    9.4612    0.0000 C   0  0  0  0  0  0  0  0  0  0  0  0
   -3.5714   10.5759    0.0000 C   0  0  0  0  0  0  0  0  0  0  0  0
   -5.0387   10.2640    0.0000 C   0  0  0  0  0  0  0  0  0  0  0  0
   -5.5022    8.8374    0.0000 C   0  0  0  0  0  0  0  0  0  0  0  0
   -4.4218    3.7548    0.0000 N   0  0  0  0  0  0  0  0  0  0  0  0
   -0.7500    1.2990    0.0000 C   0  0  0  0  0  0  0  0  0  0  0  0
    0.7500    1.2990    0.0000 C   0  0  0  0  0  0  0  0  0  0  0  0
  1  2  1  0
  2  3  1  0
  3  4  1  0
  4  5  1  0
  5  6  1  0
  6  7  1  0
  7  8  2  0
  8  9  1  0
  9 10  1  0
 10 11  2  0
 11 12  1  0
 12 13  2  0
 13 14  1  0
 13 15  1  0
 15 16  2  0
  9 17  2  0
 17 18  1  0
 18 19  2  0
 19 20  1  0
 20 21  2  0
 21 22  1  0
 22 23  1  0
 23 24  1  0
 24 25  2  0
 25 26  1  0
 26 27  2  0
 27 28  1  0
 28 29  2  0
 22 30  2  0
  5 31  1  0
 31 32  1  0
 32  2  1  0
 17  6  1  0
 30 18  1  0
 16 10  1  0
 29 24  1  0
M  END
>  <Compound_ID>  (729) 
CHEMBL318892

>  <Molecule Name>  (729) 
nan

>  <Molecular Weight>  (729) 
428.52

>  <AlogP>  (729) 
5.16

>  <Smiles>  (729) 
CN1CCC(n2cnc(-c3ccc(F)cc3)c2-c2ccnc(Nc3ccccc3)n2)CC1

>  <Standard Type>  (729) 
Inhibition

>  <Standard Relation>  (729) 
'='

>  <Standard Units>  (729) 
%

>  <Standard Value>  (729) 
-0.03

>  <Assay ChEMBL ID>  (729) 
CHEMBL1962184

>  <Assay Description>  (729) 
GSK_PKIS: TRKA mean inhibition at 0.1 uM [Nanosyn]

>  <BAO Format ID>  (729) 
BAO_0000357

>  <BAO Label>  (729) 
single protein format

>  <Assay Organism>  (729) 
None

>  <Target ChEMBL ID>  (729) 
CHEMBL2815

>  <Target Name>  (729) 
Nerve growth factor receptor Trk-A

>  <Target Organism>  (729) 
Homo sapiens

>  <Target Type>  (729) 
SINGLE PROTEIN

>  <Document ChEMBL ID>  (729) 
CHEMBL1961873

>  <Source Description>  (729) 
GSK Published Kinase Inhibitor Set

>  <Document Journal>  (729) 
nan

>  <Document Year>  (729) 
nan

>  <Active>  (729) 
0.0

>  <bits>  (729) 
<rdkit.DataStructs.cDataStructs.ExplicitBitVect object at 0x00000159F540C510>

>  <Group>  (729) 
G2

$$$$

     RDKit          2D

 26 29  0  0  0  0  0  0  0  0999 V2000
   -9.1645    1.7722    0.0000 C   0  0  0  0  0  0  0  0  0  0  0  0
   -8.0498    0.7685    0.0000 O   0  0  0  0  0  0  0  0  0  0  0  0
   -6.6232    1.2320    0.0000 C   0  0  0  0  0  0  0  0  0  0  0  0
   -6.3114    2.6992    0.0000 C   0  0  0  0  0  0  0  0  0  0  0  0
   -4.8848    3.1627    0.0000 C   0  0  0  0  0  0  0  0  0  0  0  0
   -3.7701    2.1590    0.0000 C   0  0  0  0  0  0  0  0  0  0  0  0
   -4.0819    0.6918    0.0000 C   0  0  0  0  0  0  0  0  0  0  0  0
   -2.9672   -0.3119    0.0000 C   0  0  0  0  0  0  0  0  0  0  0  0
   -3.1240   -1.8037    0.0000 C   0  0  0  0  0  0  0  0  0  0  0  0
   -1.7537   -2.4138    0.0000 N   0  0  0  0  0  0  0  0  0  0  0  0
   -0.7500   -1.2990    0.0000 C   0  0  0  0  0  0  0  0  0  0  0  0
    0.7500   -1.2990    0.0000 C   0  0  0  0  0  0  0  0  0  0  0  0
    1.5000   -2.5981    0.0000 N   0  0  0  0  0  0  0  0  0  0  0  0
    3.0000   -2.5981    0.0000 N   0  0  0  0  0  0  0  0  0  0  0  0
    3.7500   -3.8971    0.0000 C   0  0  0  0  0  0  0  0  0  0  0  0
    5.2500   -3.8971    0.0000 C   0  0  0  0  0  0  0  0  0  0  0  0
    6.0000   -5.1962    0.0000 C   0  0  0  0  0  0  0  0  0  0  0  0
    7.5000   -5.1962    0.0000 C   0  0  0  0  0  0  0  0  0  0  0  0
    8.2500   -3.8971    0.0000 N   0  0  0  0  0  0  0  0  0  0  0  0
    7.5000   -2.5981    0.0000 C   0  0  0  0  0  0  0  0  0  0  0  0
    6.0000   -2.5981    0.0000 C   0  0  0  0  0  0  0  0  0  0  0  0
    1.5000    0.0000    0.0000 N   0  0  0  0  0  0  0  0  0  0  0  0
    0.7500    1.2990    0.0000 C   0  0  0  0  0  0  0  0  0  0  0  0
   -0.7500    1.2990    0.0000 N   0  0  0  0  0  0  0  0  0  0  0  0
   -1.5000    0.0000    0.0000 C   0  0  0  0  0  0  0  0  0  0  0  0
   -5.5085    0.2283    0.0000 C   0  0  0  0  0  0  0  0  0  0  0  0
  1  2  1  0
  2  3  1  0
  3  4  2  0
  4  5  1  0
  5  6  2  0
  6  7  1  0
  7  8  1  0
  8  9  2  0
  9 10  1  0
 10 11  1  0
 11 12  2  0
 12 13  1  0
 13 14  1  0
 14 15  2  0
 15 16  1  0
 16 17  2  0
 17 18  1  0
 18 19  2  0
 19 20  1  0
 20 21  2  0
 12 22  1  0
 22 23  2  0
 23 24  1  0
 24 25  2  0
  7 26  2  0
 26  3  1  0
 25  8  1  0
 25 11  1  0
 21 16  1  0
M  END
>  <Compound_ID>  (730) 
CHEMBL206010

>  <Molecule Name>  (730) 
GW814408X

>  <Molecular Weight>  (730) 
344.38

>  <AlogP>  (730) 
3.47

>  <Smiles>  (730) 
COc1cccc(-c2c[nH]c3c(N/N=C/c4ccncc4)ncnc23)c1

>  <Standard Type>  (730) 
Inhibition

>  <Standard Relation>  (730) 
'='

>  <Standard Units>  (730) 
%

>  <Standard Value>  (730) 
6.49

>  <Assay ChEMBL ID>  (730) 
CHEMBL1962184

>  <Assay Description>  (730) 
GSK_PKIS: TRKA mean inhibition at 0.1 uM [Nanosyn]

>  <BAO Format ID>  (730) 
BAO_0000357

>  <BAO Label>  (730) 
single protein format

>  <Assay Organism>  (730) 
None

>  <Target ChEMBL ID>  (730) 
CHEMBL2815

>  <Target Name>  (730) 
Nerve growth factor receptor Trk-A

>  <Target Organism>  (730) 
Homo sapiens

>  <Target Type>  (730) 
SINGLE PROTEIN

>  <Document ChEMBL ID>  (730) 
CHEMBL1961873

>  <Source Description>  (730) 
GSK Published Kinase Inhibitor Set

>  <Document Journal>  (730) 
nan

>  <Document Year>  (730) 
nan

>  <Active>  (730) 
0.0

>  <bits>  (730) 
<rdkit.DataStructs.cDataStructs.ExplicitBitVect object at 0x00000159F540DD90>

>  <Group>  (730) 
G2

$$$$

     RDKit          2D

 28 30  0  0  0  0  0  0  0  0999 V2000
    6.7500    1.2990    0.0000 C   0  0  0  0  0  0  0  0  0  0  0  0
    5.2500    1.2990    0.0000 C   0  0  0  0  0  0  0  0  0  0  0  0
    4.5000    0.0000    0.0000 N   0  0  0  0  0  0  0  0  0  0  0  0
    5.2500   -1.2990    0.0000 C   0  0  0  0  0  0  0  0  0  0  0  0
    6.7500   -1.2990    0.0000 C   0  0  0  0  0  0  0  0  0  0  0  0
    3.0000    0.0000    0.0000 S   0  0  0  0  0  0  0  0  0  0  0  0
    3.0000   -1.5000    0.0000 O   0  0  0  0  0  0  0  0  0  0  0  0
    3.0000    1.5000    0.0000 O   0  0  0  0  0  0  0  0  0  0  0  0
    1.5000    0.0000    0.0000 C   0  0  0  0  0  0  0  0  0  0  0  0
    0.7500   -1.2990    0.0000 C   0  0  0  0  0  0  0  0  0  0  0  0
   -0.7500   -1.2990    0.0000 C   0  0  0  0  0  0  0  0  0  0  0  0
   -1.5000    0.0000    0.0000 C   0  0  0  0  0  0  0  0  0  0  0  0
   -3.0000    0.0000    0.0000 O   0  0  0  0  0  0  0  0  0  0  0  0
   -3.7500   -1.2990    0.0000 C   0  0  0  0  0  0  0  0  0  0  0  0
   -0.7500    1.2990    0.0000 C   0  0  0  0  0  0  0  0  0  0  0  0
   -1.5000    2.5981    0.0000 N   0  0  0  0  0  0  0  0  0  0  0  0
   -0.7500    3.8971    0.0000 C   0  0  0  0  0  0  0  0  0  0  0  0
   -1.3601    5.2674    0.0000 N   0  0  0  0  0  0  0  0  0  0  0  0
   -0.2454    6.2711    0.0000 C   0  0  0  0  0  0  0  0  0  0  0  0
    1.0537    5.5211    0.0000 C   0  0  0  0  0  0  0  0  0  0  0  0
    2.4240    6.1312    0.0000 C   0  0  0  0  0  0  0  0  0  0  0  0
    3.6375    5.2496    0.0000 C   0  0  0  0  0  0  0  0  0  0  0  0
    5.0078    5.8597    0.0000 C   0  0  0  0  0  0  0  0  0  0  0  0
    5.1646    7.3514    0.0000 C   0  0  0  0  0  0  0  0  0  0  0  0
    3.9511    8.2331    0.0000 C   0  0  0  0  0  0  0  0  0  0  0  0
    2.5808    7.6230    0.0000 C   0  0  0  0  0  0  0  0  0  0  0  0
    0.7418    4.0539    0.0000 O   0  0  0  0  0  0  0  0  0  0  0  0
    0.7500    1.2990    0.0000 C   0  0  0  0  0  0  0  0  0  0  0  0
  1  2  1  0
  2  3  1  0
  3  4  1  0
  4  5  1  0
  3  6  1  0
  6  7  2  0
  6  8  2  0
  6  9  1  0
  9 10  2  0
 10 11  1  0
 11 12  2  0
 12 13  1  0
 13 14  1  0
 12 15  1  0
 15 16  1  0
 16 17  1  0
 17 18  2  0
 18 19  1  0
 19 20  2  0
 20 21  1  0
 21 22  2  0
 22 23  1  0
 23 24  2  0
 24 25  1  0
 25 26  2  0
 20 27  1  0
 15 28  2  0
 28  9  1  0
 27 17  1  0
 26 21  1  0
M  END
>  <Compound_ID>  (731) 
CHEMBL275473

>  <Molecule Name>  (731) 
GW572401X

>  <Molecular Weight>  (731) 
401.49

>  <AlogP>  (731) 
4.12

>  <Smiles>  (731) 
CCN(CC)S(=O)(=O)c1ccc(OC)c(Nc2ncc(-c3ccccc3)o2)c1

>  <Standard Type>  (731) 
Inhibition

>  <Standard Relation>  (731) 
'='

>  <Standard Units>  (731) 
%

>  <Standard Value>  (731) 
4.25

>  <Assay ChEMBL ID>  (731) 
CHEMBL1962184

>  <Assay Description>  (731) 
GSK_PKIS: TRKA mean inhibition at 0.1 uM [Nanosyn]

>  <BAO Format ID>  (731) 
BAO_0000357

>  <BAO Label>  (731) 
single protein format

>  <Assay Organism>  (731) 
None

>  <Target ChEMBL ID>  (731) 
CHEMBL2815

>  <Target Name>  (731) 
Nerve growth factor receptor Trk-A

>  <Target Organism>  (731) 
Homo sapiens

>  <Target Type>  (731) 
SINGLE PROTEIN

>  <Document ChEMBL ID>  (731) 
CHEMBL1961873

>  <Source Description>  (731) 
GSK Published Kinase Inhibitor Set

>  <Document Journal>  (731) 
nan

>  <Document Year>  (731) 
nan

>  <Active>  (731) 
0.0

>  <bits>  (731) 
<rdkit.DataStructs.cDataStructs.ExplicitBitVect object at 0x00000159F540C4A0>

>  <Group>  (731) 
G2

$$$$

     RDKit          2D

 30 34  0  0  0  0  0  0  0  0999 V2000
   -5.2500   -6.4952    0.0000 C   0  0  0  0  0  0  0  0  0  0  0  0
   -3.7500   -6.4952    0.0000 C   0  0  0  0  0  0  0  0  0  0  0  0
   -3.0000   -5.1962    0.0000 C   0  0  0  0  0  0  0  0  0  0  0  0
   -3.7500   -3.8971    0.0000 C   0  0  0  0  0  0  0  0  0  0  0  0
   -3.0000   -2.5981    0.0000 O   0  0  0  0  0  0  0  0  0  0  0  0
   -5.2500   -3.8971    0.0000 N   0  0  0  0  0  0  0  0  0  0  0  0
   -6.0000   -2.5981    0.0000 C   0  0  0  0  0  0  0  0  0  0  0  0
   -5.2500   -1.2990    0.0000 C   0  0  0  0  0  0  0  0  0  0  0  0
   -6.0000   -0.0000    0.0000 C   0  0  0  0  0  0  0  0  0  0  0  0
   -7.5000   -0.0000    0.0000 C   0  0  0  0  0  0  0  0  0  0  0  0
   -8.5037    1.1147    0.0000 N   0  0  0  0  0  0  0  0  0  0  0  0
   -9.8740    0.5046    0.0000 N   0  0  0  0  0  0  0  0  0  0  0  0
   -9.7172   -0.9872    0.0000 C   0  0  0  0  0  0  0  0  0  0  0  0
   -8.2500   -1.2990    0.0000 C   0  0  0  0  0  0  0  0  0  0  0  0
   -7.5000   -2.5981    0.0000 C   0  0  0  0  0  0  0  0  0  0  0  0
   -1.5000   -5.1962    0.0000 C   0  0  0  0  0  0  0  0  0  0  0  0
   -0.7500   -3.8971    0.0000 C   0  0  0  0  0  0  0  0  0  0  0  0
    0.7500   -3.8971    0.0000 C   0  0  0  0  0  0  0  0  0  0  0  0
    1.5000   -2.5981    0.0000 C   0  0  0  0  0  0  0  0  0  0  0  0
    0.7500   -1.2990    0.0000 C   0  0  0  0  0  0  0  0  0  0  0  0
    1.5000    0.0000    0.0000 C   0  0  0  0  0  0  0  0  0  0  0  0
    0.7500    1.2990    0.0000 C   0  0  0  0  0  0  0  0  0  0  0  0
   -0.7500    1.2990    0.0000 C   0  0  0  0  0  0  0  0  0  0  0  0
   -1.5000    0.0000    0.0000 C   0  0  0  0  0  0  0  0  0  0  0  0
   -0.7500   -1.2990    0.0000 C   0  0  0  0  0  0  0  0  0  0  0  0
   -1.5000   -2.5981    0.0000 C   0  0  0  0  0  0  0  0  0  0  0  0
   -0.7500   -6.4952    0.0000 C   0  0  0  0  0  0  0  0  0  0  0  0
   -1.5000   -7.7942    0.0000 C   0  0  0  0  0  0  0  0  0  0  0  0
   -0.7500   -9.0933    0.0000 O   0  0  0  0  0  0  0  0  0  0  0  0
   -3.0000   -7.7942    0.0000 N   0  0  0  0  0  0  0  0  0  0  0  0
  1  2  1  0
  2  3  2  0
  3  4  1  0
  4  5  2  0
  4  6  1  0
  6  7  1  0
  7  8  2  0
  8  9  1  0
  9 10  2  0
 10 11  1  0
 11 12  1  0
 12 13  2  0
 13 14  1  0
 14 15  2  0
  3 16  1  0
 16 17  1  0
 17 18  2  0
 18 19  1  0
 19 20  2  0
 20 21  1  0
 21 22  2  0
 22 23  1  0
 23 24  2  0
 24 25  1  0
 25 26  2  0
 16 27  1  0
 27 28  1  0
 28 29  2  0
 28 30  1  0
 30  2  1  0
 15  7  1  0
 26 17  1  0
 14 10  1  0
 25 20  1  0
M  END
>  <Compound_ID>  (732) 
CHEMBL441702

>  <Molecule Name>  (732) 
GSK-270822A

>  <Molecular Weight>  (732) 
396.45

>  <AlogP>  (732) 
4.23

>  <Smiles>  (732) 
CC1=C(C(=O)Nc2ccc3[nH]ncc3c2)C(c2ccc3ccccc3c2)CC(=O)N1

>  <Standard Type>  (732) 
Inhibition

>  <Standard Relation>  (732) 
'='

>  <Standard Units>  (732) 
%

>  <Standard Value>  (732) 
3.43

>  <Assay ChEMBL ID>  (732) 
CHEMBL1962184

>  <Assay Description>  (732) 
GSK_PKIS: TRKA mean inhibition at 0.1 uM [Nanosyn]

>  <BAO Format ID>  (732) 
BAO_0000357

>  <BAO Label>  (732) 
single protein format

>  <Assay Organism>  (732) 
None

>  <Target ChEMBL ID>  (732) 
CHEMBL2815

>  <Target Name>  (732) 
Nerve growth factor receptor Trk-A

>  <Target Organism>  (732) 
Homo sapiens

>  <Target Type>  (732) 
SINGLE PROTEIN

>  <Document ChEMBL ID>  (732) 
CHEMBL1961873

>  <Source Description>  (732) 
GSK Published Kinase Inhibitor Set

>  <Document Journal>  (732) 
nan

>  <Document Year>  (732) 
nan

>  <Active>  (732) 
0.0

>  <bits>  (732) 
<rdkit.DataStructs.cDataStructs.ExplicitBitVect object at 0x00000159F540D8C0>

>  <Group>  (732) 
G2

$$$$

     RDKit          2D

 21 22  0  0  0  0  0  0  0  0999 V2000
    5.2500   -1.2990    0.0000 C   0  0  0  0  0  0  0  0  0  0  0  0
    3.7500   -1.2990    0.0000 O   0  0  0  0  0  0  0  0  0  0  0  0
    3.0000    0.0000    0.0000 C   0  0  0  0  0  0  0  0  0  0  0  0
    3.7500    1.2990    0.0000 O   0  0  0  0  0  0  0  0  0  0  0  0
    1.5000    0.0000    0.0000 C   0  0  0  0  0  0  0  0  0  0  0  0
    0.7500   -1.2990    0.0000 C   0  0  0  0  0  0  0  0  0  0  0  0
   -0.7500   -1.2990    0.0000 N   0  0  0  0  0  0  0  0  0  0  0  0
   -1.5000    0.0000    0.0000 C   0  0  0  0  0  0  0  0  0  0  0  0
   -0.7500    1.2990    0.0000 C   0  0  0  0  0  0  0  0  0  0  0  0
   -1.5000    2.5981    0.0000 C   0  0  0  0  0  0  0  0  0  0  0  0
   -0.7500    3.8971    0.0000 C   0  0  0  0  0  0  0  0  0  0  0  0
   -1.5000    5.1962    0.0000 C   0  0  0  0  0  0  0  0  0  0  0  0
   -0.7500    6.4952    0.0000 C   0  0  0  0  0  0  0  0  0  0  0  0
    0.7500    6.4952    0.0000 C   0  0  0  0  0  0  0  0  0  0  0  0
   -1.5000    7.7942    0.0000 C   0  0  0  0  0  0  0  0  0  0  0  0
   -3.0000    7.7942    0.0000 C   0  0  0  0  0  0  0  0  0  0  0  0
   -3.7500    9.0933    0.0000 O   0  0  0  0  0  0  0  0  0  0  0  0
   -3.7500    6.4952    0.0000 C   0  0  0  0  0  0  0  0  0  0  0  0
   -3.0000    5.1962    0.0000 C   0  0  0  0  0  0  0  0  0  0  0  0
   -3.7500    3.8971    0.0000 C   0  0  0  0  0  0  0  0  0  0  0  0
    0.7500    1.2990    0.0000 C   0  0  0  0  0  0  0  0  0  0  0  0
  1  2  1  0
  2  3  1  0
  3  4  2  0
  3  5  1  0
  5  6  2  0
  6  7  1  0
  7  8  2  0
  8  9  1  0
  9 10  1  0
 10 11  2  0
 11 12  1  0
 12 13  2  0
 13 14  1  0
 13 15  1  0
 15 16  2  0
 16 17  1  0
 16 18  1  0
 18 19  2  0
 19 20  1  0
  9 21  2  0
 21  5  1  0
 19 12  1  0
M  END
>  <Compound_ID>  (733) 
CHEMBL220243

>  <Molecule Name>  (733) 
GW406731X

>  <Molecular Weight>  (733) 
283.33

>  <AlogP>  (733) 
3.36

>  <Smiles>  (733) 
COC(=O)c1cncc(/C=C/c2c(C)cc(O)cc2C)c1

>  <Standard Type>  (733) 
Inhibition

>  <Standard Relation>  (733) 
'='

>  <Standard Units>  (733) 
%

>  <Standard Value>  (733) 
2.21

>  <Assay ChEMBL ID>  (733) 
CHEMBL1962184

>  <Assay Description>  (733) 
GSK_PKIS: TRKA mean inhibition at 0.1 uM [Nanosyn]

>  <BAO Format ID>  (733) 
BAO_0000357

>  <BAO Label>  (733) 
single protein format

>  <Assay Organism>  (733) 
None

>  <Target ChEMBL ID>  (733) 
CHEMBL2815

>  <Target Name>  (733) 
Nerve growth factor receptor Trk-A

>  <Target Organism>  (733) 
Homo sapiens

>  <Target Type>  (733) 
SINGLE PROTEIN

>  <Document ChEMBL ID>  (733) 
CHEMBL1961873

>  <Source Description>  (733) 
GSK Published Kinase Inhibitor Set

>  <Document Journal>  (733) 
nan

>  <Document Year>  (733) 
nan

>  <Active>  (733) 
0.0

>  <bits>  (733) 
<rdkit.DataStructs.cDataStructs.ExplicitBitVect object at 0x00000159F540E810>

>  <Group>  (733) 
G2

$$$$

     RDKit          2D

 24 26  0  0  0  0  0  0  0  0999 V2000
    7.5000   -7.7942    0.0000 C   0  0  0  0  0  0  0  0  0  0  0  0
    8.2500   -6.4952    0.0000 O   0  0  0  0  0  0  0  0  0  0  0  0
    7.5000   -5.1962    0.0000 C   0  0  0  0  0  0  0  0  0  0  0  0
    6.0000   -5.1962    0.0000 C   0  0  0  0  0  0  0  0  0  0  0  0
    5.2500   -3.8971    0.0000 C   0  0  0  0  0  0  0  0  0  0  0  0
    3.7500   -3.8971    0.0000 C   0  0  0  0  0  0  0  0  0  0  0  0
    3.0000   -2.5981    0.0000 N   0  0  0  0  0  0  0  0  0  0  0  0
    1.5000   -2.5981    0.0000 N   0  0  0  0  0  0  0  0  0  0  0  0
    0.7500   -1.2990    0.0000 C   0  0  0  0  0  0  0  0  0  0  0  0
    1.5000    0.0000    0.0000 N   0  0  0  0  0  0  0  0  0  0  0  0
    0.7500    1.2990    0.0000 C   0  0  0  0  0  0  0  0  0  0  0  0
   -0.7500    1.2990    0.0000 N   0  0  0  0  0  0  0  0  0  0  0  0
   -1.5000    0.0000    0.0000 C   0  0  0  0  0  0  0  0  0  0  0  0
   -0.7500   -1.2990    0.0000 C   0  0  0  0  0  0  0  0  0  0  0  0
   -1.7537   -2.4138    0.0000 C   0  0  0  0  0  0  0  0  0  0  0  0
   -3.1240   -1.8037    0.0000 N   0  0  0  0  0  0  0  0  0  0  0  0
   -2.9672   -0.3119    0.0000 N   0  0  0  0  0  0  0  0  0  0  0  0
   -4.0819    0.6918    0.0000 C   0  0  0  0  0  0  0  0  0  0  0  0
   -5.5085    0.2283    0.0000 C   0  0  0  0  0  0  0  0  0  0  0  0
   -3.7701    2.1590    0.0000 C   0  0  0  0  0  0  0  0  0  0  0  0
    6.0000   -2.5981    0.0000 C   0  0  0  0  0  0  0  0  0  0  0  0
    7.5000   -2.5981    0.0000 C   0  0  0  0  0  0  0  0  0  0  0  0
    8.2500   -3.8971    0.0000 C   0  0  0  0  0  0  0  0  0  0  0  0
    9.7500   -3.8971    0.0000 O   0  0  0  0  0  0  0  0  0  0  0  0
  1  2  1  0
  2  3  1  0
  3  4  2  0
  4  5  1  0
  5  6  1  0
  6  7  2  0
  7  8  1  0
  8  9  1  0
  9 10  2  0
 10 11  1  0
 11 12  2  0
 12 13  1  0
 13 14  2  0
 14 15  1  0
 15 16  2  0
 16 17  1  0
 17 18  1  0
 18 19  1  0
 18 20  1  0
  5 21  2  0
 21 22  1  0
 22 23  2  0
 23 24  1  0
 23  3  1  0
 14  9  1  0
 17 13  1  0
M  END
>  <Compound_ID>  (734) 
CHEMBL63728

>  <Molecule Name>  (734) 
GW644007X

>  <Molecular Weight>  (734) 
326.36

>  <AlogP>  (734) 
2.57

>  <Smiles>  (734) 
COc1cc(/C=N/Nc2ncnc3c2cnn3C(C)C)ccc1O

>  <Standard Type>  (734) 
Inhibition

>  <Standard Relation>  (734) 
'='

>  <Standard Units>  (734) 
%

>  <Standard Value>  (734) 
8.39

>  <Assay ChEMBL ID>  (734) 
CHEMBL1962185

>  <Assay Description>  (734) 
GSK_PKIS: TRKA mean inhibition at 1 uM [Nanosyn]

>  <BAO Format ID>  (734) 
BAO_0000357

>  <BAO Label>  (734) 
single protein format

>  <Assay Organism>  (734) 
None

>  <Target ChEMBL ID>  (734) 
CHEMBL2815

>  <Target Name>  (734) 
Nerve growth factor receptor Trk-A

>  <Target Organism>  (734) 
Homo sapiens

>  <Target Type>  (734) 
SINGLE PROTEIN

>  <Document ChEMBL ID>  (734) 
CHEMBL1961873

>  <Source Description>  (734) 
GSK Published Kinase Inhibitor Set

>  <Document Journal>  (734) 
nan

>  <Document Year>  (734) 
nan

>  <Active>  (734) 
0.0

>  <bits>  (734) 
<rdkit.DataStructs.cDataStructs.ExplicitBitVect object at 0x00000159F540D770>

>  <Group>  (734) 
G2

$$$$

     RDKit          2D

 25 29  0  0  0  0  0  0  0  0999 V2000
    4.0614   -3.7960    0.0000 C   0  0  0  0  0  0  0  0  0  0  0  0
    4.3732   -5.2632    0.0000 C   0  0  0  0  0  0  0  0  0  0  0  0
    3.2585   -6.2669    0.0000 C   0  0  0  0  0  0  0  0  0  0  0  0
    1.8319   -5.8034    0.0000 C   0  0  0  0  0  0  0  0  0  0  0  0
    0.7172   -6.8071    0.0000 C   0  0  0  0  0  0  0  0  0  0  0  0
    0.8740   -8.2988    0.0000 C   0  0  0  0  0  0  0  0  0  0  0  0
   -0.4963   -8.9089    0.0000 S   0  0  0  0  0  0  0  0  0  0  0  0
   -1.5000   -7.7942    0.0000 C   0  0  0  0  0  0  0  0  0  0  0  0
   -3.0000   -7.7942    0.0000 N   0  0  0  0  0  0  0  0  0  0  0  0
   -3.7500   -6.4952    0.0000 C   0  0  0  0  0  0  0  0  0  0  0  0
   -3.0000   -5.1962    0.0000 N   0  0  0  0  0  0  0  0  0  0  0  0
   -1.5000   -5.1962    0.0000 C   0  0  0  0  0  0  0  0  0  0  0  0
   -0.7500   -3.8971    0.0000 N   0  0  0  0  0  0  0  0  0  0  0  0
    0.7500   -3.8971    0.0000 C   0  0  0  0  0  0  0  0  0  0  0  0
    1.5000   -2.5981    0.0000 C   0  0  0  0  0  0  0  0  0  0  0  0
    0.7500   -1.2990    0.0000 C   0  0  0  0  0  0  0  0  0  0  0  0
    1.5000    0.0000    0.0000 C   0  0  0  0  0  0  0  0  0  0  0  0
    0.7500    1.2990    0.0000 C   0  0  0  0  0  0  0  0  0  0  0  0
   -0.7500    1.2990    0.0000 C   0  0  0  0  0  0  0  0  0  0  0  0
   -1.5000    0.0000    0.0000 C   0  0  0  0  0  0  0  0  0  0  0  0
   -0.7500   -1.2990    0.0000 C   0  0  0  0  0  0  0  0  0  0  0  0
   -1.5000   -2.5981    0.0000 C   0  0  0  0  0  0  0  0  0  0  0  0
   -0.7500   -6.4952    0.0000 C   0  0  0  0  0  0  0  0  0  0  0  0
    1.5201   -4.3361    0.0000 C   0  0  0  0  0  0  0  0  0  0  0  0
    2.6348   -3.3324    0.0000 C   0  0  0  0  0  0  0  0  0  0  0  0
  1  2  2  0
  2  3  1  0
  3  4  2  0
  4  5  1  0
  5  6  2  0
  6  7  1  0
  7  8  1  0
  8  9  2  0
  9 10  1  0
 10 11  2  0
 11 12  1  0
 12 13  1  0
 13 14  1  0
 14 15  1  0
 15 16  1  0
 16 17  2  0
 17 18  1  0
 18 19  2  0
 19 20  1  0
 20 21  2  0
 21 22  1  0
 12 23  2  0
  4 24  1  0
 24 25  2  0
 25  1  1  0
 23  5  1  0
 23  8  1  0
 22 13  1  0
 21 16  1  0
M  END
>  <Compound_ID>  (735) 
CHEMBL1483261

>  <Molecule Name>  (735) 
nan

>  <Molecular Weight>  (735) 
343.45

>  <AlogP>  (735) 
4.92

>  <Smiles>  (735) 
c1ccc(-c2csc3ncnc(N4CCc5ccccc5C4)c23)cc1

>  <Standard Type>  (735) 
Inhibition

>  <Standard Relation>  (735) 
'='

>  <Standard Units>  (735) 
%

>  <Standard Value>  (735) 
4.18

>  <Assay ChEMBL ID>  (735) 
CHEMBL2403997

>  <Assay Description>  (735) 
Inhibition of TRKA (unknown origin) at 10 uM by Z'-LYTE kinase assay

>  <BAO Format ID>  (735) 
BAO_0000357

>  <BAO Label>  (735) 
single protein format

>  <Assay Organism>  (735) 
Homo sapiens

>  <Target ChEMBL ID>  (735) 
CHEMBL2815

>  <Target Name>  (735) 
Nerve growth factor receptor Trk-A

>  <Target Organism>  (735) 
Homo sapiens

>  <Target Type>  (735) 
SINGLE PROTEIN

>  <Document ChEMBL ID>  (735) 
CHEMBL2401630

>  <Source Description>  (735) 
Scientific Literature

>  <Document Journal>  (735) 
Eur J Med Chem

>  <Document Year>  (735) 
2013.0

>  <Active>  (735) 
0.0

>  <bits>  (735) 
<rdkit.DataStructs.cDataStructs.ExplicitBitVect object at 0x00000159F540C3C0>

>  <Group>  (735) 
G2

$$$$

     RDKit          2D

 21 24  0  0  0  0  0  0  0  0999 V2000
   -2.6401   -5.5255    0.0000 N   0  0  0  0  0  0  0  0  0  0  0  0
   -1.2135   -5.9890    0.0000 C   0  0  0  0  0  0  0  0  0  0  0  0
   -0.7500   -7.4156    0.0000 N   0  0  0  0  0  0  0  0  0  0  0  0
    0.7500   -7.4156    0.0000 O   0  0  0  0  0  0  0  0  0  0  0  0
    1.2135   -5.9890    0.0000 N   0  0  0  0  0  0  0  0  0  0  0  0
   -0.0000   -5.1073    0.0000 C   0  0  0  0  0  0  0  0  0  0  0  0
   -0.0000   -3.6073    0.0000 C   0  0  0  0  0  0  0  0  0  0  0  0
    1.2135   -2.7256    0.0000 N   0  0  0  0  0  0  0  0  0  0  0  0
    0.7500   -1.2990    0.0000 C   0  0  0  0  0  0  0  0  0  0  0  0
    1.5000    0.0000    0.0000 C   0  0  0  0  0  0  0  0  0  0  0  0
    0.7500    1.2990    0.0000 N   0  0  0  0  0  0  0  0  0  0  0  0
   -0.7500    1.2990    0.0000 C   0  0  0  0  0  0  0  0  0  0  0  0
   -1.5000    0.0000    0.0000 C   0  0  0  0  0  0  0  0  0  0  0  0
   -0.7500   -1.2990    0.0000 C   0  0  0  0  0  0  0  0  0  0  0  0
   -1.2135   -2.7256    0.0000 N   0  0  0  0  0  0  0  0  0  0  0  0
   -2.6401   -3.1891    0.0000 C   0  0  0  0  0  0  0  0  0  0  0  0
   -3.7548   -2.1855    0.0000 C   0  0  0  0  0  0  0  0  0  0  0  0
   -5.1814   -2.6490    0.0000 C   0  0  0  0  0  0  0  0  0  0  0  0
   -5.4933   -4.1162    0.0000 C   0  0  0  0  0  0  0  0  0  0  0  0
   -4.3786   -5.1199    0.0000 C   0  0  0  0  0  0  0  0  0  0  0  0
   -2.9520   -4.6564    0.0000 C   0  0  0  0  0  0  0  0  0  0  0  0
  1  2  1  0
  2  3  2  0
  3  4  1  0
  4  5  1  0
  5  6  2  0
  6  7  1  0
  7  8  2  0
  8  9  1  0
  9 10  2  0
 10 11  1  0
 11 12  2  0
 12 13  1  0
 13 14  2  0
 14 15  1  0
 15 16  1  0
 16 17  1  0
 17 18  1  0
 18 19  1  0
 19 20  1  0
 20 21  1  0
  6  2  1  0
 15  7  1  0
 21 16  1  0
 14  9  1  0
M  END
>  <Compound_ID>  (736) 
CHEMBL189231

>  <Molecule Name>  (736) 
nan

>  <Molecular Weight>  (736) 
284.32

>  <AlogP>  (736) 
2.57

>  <Smiles>  (736) 
Nc1nonc1-c1nc2cnccc2n1C1CCCCC1

>  <Standard Type>  (736) 
Inhibition

>  <Standard Relation>  (736) 
'='

>  <Standard Units>  (736) 
%

>  <Standard Value>  (736) 
-1.55

>  <Assay ChEMBL ID>  (736) 
CHEMBL1962184

>  <Assay Description>  (736) 
GSK_PKIS: TRKA mean inhibition at 0.1 uM [Nanosyn]

>  <BAO Format ID>  (736) 
BAO_0000357

>  <BAO Label>  (736) 
single protein format

>  <Assay Organism>  (736) 
None

>  <Target ChEMBL ID>  (736) 
CHEMBL2815

>  <Target Name>  (736) 
Nerve growth factor receptor Trk-A

>  <Target Organism>  (736) 
Homo sapiens

>  <Target Type>  (736) 
SINGLE PROTEIN

>  <Document ChEMBL ID>  (736) 
CHEMBL1961873

>  <Source Description>  (736) 
GSK Published Kinase Inhibitor Set

>  <Document Journal>  (736) 
nan

>  <Document Year>  (736) 
nan

>  <Active>  (736) 
0.0

>  <bits>  (736) 
<rdkit.DataStructs.cDataStructs.ExplicitBitVect object at 0x00000159F540E110>

>  <Group>  (736) 
G2

$$$$

     RDKit          2D

 34 37  0  0  0  0  0  0  0  0999 V2000
    3.7500   -1.2990    0.0000 C   0  0  0  0  0  0  0  0  0  0  0  0
    3.0000    0.0000    0.0000 O   0  0  0  0  0  0  0  0  0  0  0  0
    1.5000    0.0000    0.0000 C   0  0  0  0  0  0  0  0  0  0  0  0
    0.7500   -1.2990    0.0000 C   0  0  0  0  0  0  0  0  0  0  0  0
   -0.7500   -1.2990    0.0000 C   0  0  0  0  0  0  0  0  0  0  0  0
   -1.5000    0.0000    0.0000 C   0  0  0  0  0  0  0  0  0  0  0  0
   -0.7500    1.2990    0.0000 C   0  0  0  0  0  0  0  0  0  0  0  0
   -1.5000    2.5981    0.0000 N   0  0  0  0  0  0  0  0  0  0  0  0
   -0.7500    3.8971    0.0000 C   0  0  0  0  0  0  0  0  0  0  0  0
    0.7500    3.8971    0.0000 C   0  0  0  0  0  0  0  0  0  0  0  0
    1.5000    5.1962    0.0000 C   0  0  0  0  0  0  0  0  0  0  0  0
    3.0000    5.1962    0.0000 N   0  0  0  0  0  0  0  0  0  0  0  0
    3.7500    3.8971    0.0000 C   0  0  0  0  0  0  0  0  0  0  0  0
    3.0000    2.5981    0.0000 C   0  0  0  0  0  0  0  0  0  0  0  0
    3.7500    1.2990    0.0000 C   0  0  0  0  0  0  0  0  0  0  0  0
    5.2500    1.2990    0.0000 C   0  0  0  0  0  0  0  0  0  0  0  0
    6.0000    2.5981    0.0000 C   0  0  0  0  0  0  0  0  0  0  0  0
    7.5000    2.5981    0.0000 C   0  0  0  0  0  0  0  0  0  0  0  0
    8.2500    3.8971    0.0000 O   0  0  0  0  0  0  0  0  0  0  0  0
    8.2500    1.2990    0.0000 N   0  0  0  0  0  0  0  0  0  0  0  0
    9.7500    1.2990    0.0000 C   0  0  0  0  0  0  0  0  0  0  0  0
   10.5000   -0.0000    0.0000 C   0  0  0  0  0  0  0  0  0  0  0  0
   12.0000   -0.0000    0.0000 C   0  0  0  0  0  0  0  0  0  0  0  0
   12.7500   -1.2990    0.0000 N   0  0  0  0  0  0  0  0  0  0  0  0
   14.2418   -1.4558    0.0000 C   0  0  0  0  0  0  0  0  0  0  0  0
   14.5537   -2.9231    0.0000 C   0  0  0  0  0  0  0  0  0  0  0  0
   13.2546   -3.6731    0.0000 N   0  0  0  0  0  0  0  0  0  0  0  0
   12.1399   -2.6694    0.0000 C   0  0  0  0  0  0  0  0  0  0  0  0
    5.2500    3.8971    0.0000 C   0  0  0  0  0  0  0  0  0  0  0  0
    0.7500    6.4952    0.0000 N   0  0  0  0  0  0  0  0  0  0  0  0
   -0.7500    6.4952    0.0000 C   0  0  0  0  0  0  0  0  0  0  0  0
   -1.5000    7.7942    0.0000 N   0  0  0  0  0  0  0  0  0  0  0  0
   -1.5000    5.1962    0.0000 N   0  0  0  0  0  0  0  0  0  0  0  0
    0.7500    1.2990    0.0000 C   0  0  0  0  0  0  0  0  0  0  0  0
  1  2  1  0
  2  3  1  0
  3  4  2  0
  4  5  1  0
  5  6  2  0
  6  7  1  0
  7  8  1  0
  8  9  1  0
  9 10  2  0
 10 11  1  0
 11 12  1  0
 12 13  1  0
 13 14  2  0
 14 15  1  0
 15 16  2  0
 16 17  1  0
 17 18  1  0
 18 19  2  0
 18 20  1  0
 20 21  1  0
 21 22  1  0
 22 23  1  0
 23 24  1  0
 24 25  1  0
 25 26  2  0
 26 27  1  0
 27 28  2  0
 17 29  2  0
 11 30  2  0
 30 31  1  0
 31 32  1  0
 31 33  2  0
  7 34  2  0
 34  3  1  0
 33  9  1  0
 29 13  1  0
 28 24  1  0
M  END
>  <Compound_ID>  (737) 
CHEMBL520980

>  <Molecule Name>  (737) 
nan

>  <Molecular Weight>  (737) 
458.53

>  <AlogP>  (737) 
3.57

>  <Smiles>  (737) 
COc1cccc(Nc2cc(Nc3cccc(C(=O)NCCCn4ccnc4)c3)nc(N)n2)c1

>  <Standard Type>  (737) 
Inhibition

>  <Standard Relation>  (737) 
'='

>  <Standard Units>  (737) 
%

>  <Standard Value>  (737) 
7.0

>  <Assay ChEMBL ID>  (737) 
CHEMBL965679

>  <Assay Description>  (737) 
Inhibition of TrkA at 10 uM by HTRF assay relative to control

>  <BAO Format ID>  (737) 
BAO_0000357

>  <BAO Label>  (737) 
single protein format

>  <Assay Organism>  (737) 
None

>  <Target ChEMBL ID>  (737) 
CHEMBL2815

>  <Target Name>  (737) 
Nerve growth factor receptor Trk-A

>  <Target Organism>  (737) 
Homo sapiens

>  <Target Type>  (737) 
SINGLE PROTEIN

>  <Document ChEMBL ID>  (737) 
CHEMBL1150387

>  <Source Description>  (737) 
Scientific Literature

>  <Document Journal>  (737) 
J Med Chem

>  <Document Year>  (737) 
2008.0

>  <Active>  (737) 
0.0

>  <bits>  (737) 
<rdkit.DataStructs.cDataStructs.ExplicitBitVect object at 0x00000159F540C270>

>  <Group>  (737) 
G2

$$$$

     RDKit          2D

 32 35  0  0  0  0  0  0  0  0999 V2000
    3.7500   -1.2990    0.0000 C   0  0  0  0  0  0  0  0  0  0  0  0
    3.0000    0.0000    0.0000 O   0  0  0  0  0  0  0  0  0  0  0  0
    1.5000    0.0000    0.0000 C   0  0  0  0  0  0  0  0  0  0  0  0
    0.7500   -1.2990    0.0000 C   0  0  0  0  0  0  0  0  0  0  0  0
   -0.7500   -1.2990    0.0000 C   0  0  0  0  0  0  0  0  0  0  0  0
   -1.5000    0.0000    0.0000 C   0  0  0  0  0  0  0  0  0  0  0  0
   -0.7500    1.2990    0.0000 C   0  0  0  0  0  0  0  0  0  0  0  0
   -1.5000    2.5981    0.0000 N   0  0  0  0  0  0  0  0  0  0  0  0
   -0.7500    3.8971    0.0000 C   0  0  0  0  0  0  0  0  0  0  0  0
    0.7500    3.8971    0.0000 C   0  0  0  0  0  0  0  0  0  0  0  0
    1.5000    5.1962    0.0000 C   0  0  0  0  0  0  0  0  0  0  0  0
    3.0000    5.1962    0.0000 N   0  0  0  0  0  0  0  0  0  0  0  0
    3.8817    6.4097    0.0000 C   0  0  0  0  0  0  0  0  0  0  0  0
    5.3083    5.9462    0.0000 C   0  0  0  0  0  0  0  0  0  0  0  0
    5.3083    4.4462    0.0000 C   0  0  0  0  0  0  0  0  0  0  0  0
    3.8817    3.9826    0.0000 C   0  0  0  0  0  0  0  0  0  0  0  0
    3.4182    2.5560    0.0000 C   0  0  0  0  0  0  0  0  0  0  0  0
    1.9509    2.2442    0.0000 O   0  0  0  0  0  0  0  0  0  0  0  0
    4.4218    1.4413    0.0000 N   0  0  0  0  0  0  0  0  0  0  0  0
    3.9583    0.0147    0.0000 C   0  0  0  0  0  0  0  0  0  0  0  0
    4.9620   -1.1000    0.0000 C   0  0  0  0  0  0  0  0  0  0  0  0
    4.4985   -2.5266    0.0000 N   0  0  0  0  0  0  0  0  0  0  0  0
    3.0313   -2.8384    0.0000 C   0  0  0  0  0  0  0  0  0  0  0  0
    2.5677   -4.2650    0.0000 C   0  0  0  0  0  0  0  0  0  0  0  0
    3.5714   -5.3797    0.0000 C   0  0  0  0  0  0  0  0  0  0  0  0
    5.0387   -5.0679    0.0000 C   0  0  0  0  0  0  0  0  0  0  0  0
    5.5022   -3.6413    0.0000 C   0  0  0  0  0  0  0  0  0  0  0  0
    0.7500    6.4952    0.0000 N   0  0  0  0  0  0  0  0  0  0  0  0
   -0.7500    6.4952    0.0000 C   0  0  0  0  0  0  0  0  0  0  0  0
   -1.5000    7.7942    0.0000 N   0  0  0  0  0  0  0  0  0  0  0  0
   -1.5000    5.1962    0.0000 N   0  0  0  0  0  0  0  0  0  0  0  0
    0.7500    1.2990    0.0000 C   0  0  0  0  0  0  0  0  0  0  0  0
  1  2  1  0
  2  3  1  0
  3  4  2  0
  4  5  1  0
  5  6  2  0
  6  7  1  0
  7  8  1  0
  8  9  1  0
  9 10  2  0
 10 11  1  0
 11 12  1  0
 12 13  1  0
 13 14  1  0
 14 15  1  0
 15 16  1  0
 16 17  1  1
 17 18  2  0
 17 19  1  0
 19 20  1  0
 20 21  1  0
 21 22  1  0
 22 23  1  0
 23 24  1  0
 24 25  1  0
 25 26  1  0
 26 27  1  0
 11 28  2  0
 28 29  1  0
 29 30  1  0
 29 31  2  0
  7 32  2  0
 32  3  1  0
 31  9  1  0
 16 12  1  0
 27 22  1  0
M  END
>  <Compound_ID>  (738) 
CHEMBL526526

>  <Molecule Name>  (738) 
nan

>  <Molecular Weight>  (738) 
439.56

>  <AlogP>  (738) 
2.38

>  <Smiles>  (738) 
COc1cccc(Nc2cc(N3CCC[C@H]3C(=O)NCCN3CCCCC3)nc(N)n2)c1

>  <Standard Type>  (738) 
Inhibition

>  <Standard Relation>  (738) 
'='

>  <Standard Units>  (738) 
%

>  <Standard Value>  (738) 
8.0

>  <Assay ChEMBL ID>  (738) 
CHEMBL965679

>  <Assay Description>  (738) 
Inhibition of TrkA at 10 uM by HTRF assay relative to control

>  <BAO Format ID>  (738) 
BAO_0000357

>  <BAO Label>  (738) 
single protein format

>  <Assay Organism>  (738) 
None

>  <Target ChEMBL ID>  (738) 
CHEMBL2815

>  <Target Name>  (738) 
Nerve growth factor receptor Trk-A

>  <Target Organism>  (738) 
Homo sapiens

>  <Target Type>  (738) 
SINGLE PROTEIN

>  <Document ChEMBL ID>  (738) 
CHEMBL1150387

>  <Source Description>  (738) 
Scientific Literature

>  <Document Journal>  (738) 
J Med Chem

>  <Document Year>  (738) 
2008.0

>  <Active>  (738) 
0.0

>  <bits>  (738) 
<rdkit.DataStructs.cDataStructs.ExplicitBitVect object at 0x00000159F540C190>

>  <Group>  (738) 
G2

$$$$

     RDKit          2D

 40 45  0  0  0  0  0  0  0  0999 V2000
   -3.7548   -2.1855    0.0000 O   0  0  0  0  0  0  0  0  0  0  0  0
   -2.6401   -3.1891    0.0000 C   0  0  0  0  0  0  0  0  0  0  0  0
   -1.2135   -2.7256    0.0000 C   0  0  0  0  0  0  0  0  0  0  0  0
   -0.0000   -3.6073    0.0000 N   0  0  0  0  0  0  0  0  0  0  0  0
    1.2135   -2.7256    0.0000 C   0  0  0  0  0  0  0  0  0  0  0  0
    2.6401   -3.1891    0.0000 S   0  0  0  0  0  0  0  0  0  0  0  0
    2.9520   -4.6564    0.0000 C   0  0  0  0  0  0  0  0  0  0  0  0
    4.3786   -5.1199    0.0000 C   0  0  0  0  0  0  0  0  0  0  0  0
    4.6904   -6.5871    0.0000 C   0  0  0  0  0  0  0  0  0  0  0  0
    6.1170   -7.0506    0.0000 C   0  0  0  0  0  0  0  0  0  0  0  0
    7.2317   -6.0469    0.0000 C   0  0  0  0  0  0  0  0  0  0  0  0
    8.6583   -6.5105    0.0000 Cl  0  0  0  0  0  0  0  0  0  0  0  0
    6.9199   -4.5797    0.0000 C   0  0  0  0  0  0  0  0  0  0  0  0
    5.4933   -4.1162    0.0000 C   0  0  0  0  0  0  0  0  0  0  0  0
    0.7500   -1.2990    0.0000 N   0  0  0  0  0  0  0  0  0  0  0  0
    1.5000    0.0000    0.0000 C   0  0  0  0  0  0  0  0  0  0  0  0
    0.7500    1.2990    0.0000 C   0  0  0  0  0  0  0  0  0  0  0  0
   -0.7500    1.2990    0.0000 C   0  0  0  0  0  0  0  0  0  0  0  0
   -1.5000    0.0000    0.0000 C   0  0  0  0  0  0  0  0  0  0  0  0
   -0.7500   -1.2990    0.0000 C   0  0  0  0  0  0  0  0  0  0  0  0
   -2.9520   -4.6564    0.0000 N   0  0  0  0  0  0  0  0  0  0  0  0
   -4.3786   -5.1199    0.0000 C   0  0  0  0  0  0  0  0  0  0  0  0
   -4.6904   -6.5871    0.0000 C   0  0  0  0  0  0  0  0  0  0  0  0
   -3.5757   -7.5908    0.0000 N   0  0  0  0  0  0  0  0  0  0  0  0
   -3.8876   -9.0580    0.0000 C   0  0  0  0  0  0  0  0  0  0  0  0
   -5.3142   -9.5216    0.0000 C   0  0  0  0  0  0  0  0  0  0  0  0
   -5.6260  -10.9888    0.0000 C   0  0  0  0  0  0  0  0  0  0  0  0
   -7.0526  -11.4523    0.0000 N   0  0  0  0  0  0  0  0  0  0  0  0
   -8.1673  -10.4486    0.0000 C   0  0  0  0  0  0  0  0  0  0  0  0
   -7.8555   -8.9814    0.0000 C   0  0  0  0  0  0  0  0  0  0  0  0
   -8.9702   -7.9777    0.0000 C   0  0  0  0  0  0  0  0  0  0  0  0
  -10.3968   -8.4412    0.0000 C   0  0  0  0  0  0  0  0  0  0  0  0
  -10.7086   -9.9084    0.0000 C   0  0  0  0  0  0  0  0  0  0  0  0
  -12.1352  -10.3720    0.0000 Br  0  0  0  0  0  0  0  0  0  0  0  0
   -9.5939  -10.9121    0.0000 C   0  0  0  0  0  0  0  0  0  0  0  0
   -4.5113  -11.9925    0.0000 N   0  0  0  0  0  0  0  0  0  0  0  0
   -3.0847  -11.5290    0.0000 C   0  0  0  0  0  0  0  0  0  0  0  0
   -2.7729  -10.0617    0.0000 N   0  0  0  0  0  0  0  0  0  0  0  0
   -2.1491   -7.1273    0.0000 C   0  0  0  0  0  0  0  0  0  0  0  0
   -1.8373   -5.6601    0.0000 C   0  0  0  0  0  0  0  0  0  0  0  0
  1  2  2  0
  2  3  1  0
  3  4  1  0
  4  5  2  0
  5  6  1  0
  6  7  1  0
  7  8  1  0
  8  9  2  0
  9 10  1  0
 10 11  2  0
 11 12  1  0
 11 13  1  0
 13 14  2  0
  5 15  1  0
 15 16  1  0
 16 17  2  0
 17 18  1  0
 18 19  2  0
 19 20  1  0
  2 21  1  0
 21 22  1  0
 22 23  1  0
 23 24  1  0
 24 25  1  0
 25 26  2  0
 26 27  1  0
 27 28  1  0
 28 29  1  0
 29 30  2  0
 30 31  1  0
 31 32  2  0
 32 33  1  0
 33 34  1  0
 33 35  2  0
 27 36  2  0
 36 37  1  0
 37 38  2  0
 24 39  1  0
 39 40  1  0
 20  3  2  0
 40 21  1  0
 14  8  1  0
 20 15  1  0
 38 25  1  0
 35 29  1  0
M  END
>  <Compound_ID>  (739) 
CHEMBL501200

>  <Molecule Name>  (739) 
nan

>  <Molecular Weight>  (739) 
634.99

>  <AlogP>  (739) 
6.54

>  <Smiles>  (739) 
O=C(c1nc(SCc2ccc(Cl)cc2)n2ccccc12)N1CCN(c2cc(Nc3cccc(Br)c3)ncn2)CC1

>  <Standard Type>  (739) 
Inhibition

>  <Standard Relation>  (739) 
'='

>  <Standard Units>  (739) 
%

>  <Standard Value>  (739) 
5.0

>  <Assay ChEMBL ID>  (739) 
CHEMBL965679

>  <Assay Description>  (739) 
Inhibition of TrkA at 10 uM by HTRF assay relative to control

>  <BAO Format ID>  (739) 
BAO_0000357

>  <BAO Label>  (739) 
single protein format

>  <Assay Organism>  (739) 
None

>  <Target ChEMBL ID>  (739) 
CHEMBL2815

>  <Target Name>  (739) 
Nerve growth factor receptor Trk-A

>  <Target Organism>  (739) 
Homo sapiens

>  <Target Type>  (739) 
SINGLE PROTEIN

>  <Document ChEMBL ID>  (739) 
CHEMBL1150387

>  <Source Description>  (739) 
Scientific Literature

>  <Document Journal>  (739) 
J Med Chem

>  <Document Year>  (739) 
2008.0

>  <Active>  (739) 
0.0

>  <bits>  (739) 
<rdkit.DataStructs.cDataStructs.ExplicitBitVect object at 0x00000159F540C120>

>  <Group>  (739) 
G2

$$$$

     RDKit          2D

 36 41  0  0  0  0  0  0  0  0999 V2000
   -4.3764    3.7611    0.0000 C   0  0  0  0  0  0  0  0  0  0  0  0
   -2.9499    4.2246    0.0000 O   0  0  0  0  0  0  0  0  0  0  0  0
   -1.8351    3.2209    0.0000 C   0  0  0  0  0  0  0  0  0  0  0  0
   -2.1470    1.7537    0.0000 C   0  0  0  0  0  0  0  0  0  0  0  0
   -1.0323    0.7500    0.0000 C   0  0  0  0  0  0  0  0  0  0  0  0
    0.3943    1.2135    0.0000 C   0  0  0  0  0  0  0  0  0  0  0  0
    0.7062    2.6807    0.0000 C   0  0  0  0  0  0  0  0  0  0  0  0
   -0.4086    3.6844    0.0000 C   0  0  0  0  0  0  0  0  0  0  0  0
   -0.0967    5.1517    0.0000 N   0  0  0  0  0  0  0  0  0  0  0  0
    1.3299    5.6152    0.0000 C   0  0  0  0  0  0  0  0  0  0  0  0
    2.4446    4.6115    0.0000 N   0  0  0  0  0  0  0  0  0  0  0  0
    3.8712    5.0750    0.0000 C   0  0  0  0  0  0  0  0  0  0  0  0
    4.9859    4.0713    0.0000 N   0  0  0  0  0  0  0  0  0  0  0  0
    4.8291    2.5795    0.0000 C   0  0  0  0  0  0  0  0  0  0  0  0
    6.1994    1.9694    0.0000 C   0  0  0  0  0  0  0  0  0  0  0  0
    7.2031    3.0842    0.0000 C   0  0  0  0  0  0  0  0  0  0  0  0
    8.7031    3.0842    0.0000 C   0  0  0  0  0  0  0  0  0  0  0  0
    9.4531    4.3832    0.0000 C   0  0  0  0  0  0  0  0  0  0  0  0
    8.7031    5.6822    0.0000 C   0  0  0  0  0  0  0  0  0  0  0  0
    7.2031    5.6822    0.0000 C   0  0  0  0  0  0  0  0  0  0  0  0
    6.4531    4.3832    0.0000 C   0  0  0  0  0  0  0  0  0  0  0  0
    4.1831    6.5422    0.0000 C   0  0  0  0  0  0  0  0  0  0  0  0
    5.4821    7.2922    0.0000 C   0  0  0  0  0  0  0  0  0  0  0  0
    5.1702    8.7595    0.0000 C   0  0  0  0  0  0  0  0  0  0  0  0
    3.6785    8.9163    0.0000 N   0  0  0  0  0  0  0  0  0  0  0  0
    3.0684    7.5459    0.0000 C   0  0  0  0  0  0  0  0  0  0  0  0
    1.6418    7.0824    0.0000 N   0  0  0  0  0  0  0  0  0  0  0  0
    1.2760    0.0000    0.0000 N   0  0  0  0  0  0  0  0  0  0  0  0
    2.7760    0.0000    0.0000 C   0  0  0  0  0  0  0  0  0  0  0  0
    3.5260    1.2990    0.0000 O   0  0  0  0  0  0  0  0  0  0  0  0
    3.5260   -1.2990    0.0000 C   0  0  0  0  0  0  0  0  0  0  0  0
    5.0260   -1.2990    0.0000 N   0  0  0  0  0  0  0  0  0  0  0  0
    5.7760   -2.5981    0.0000 C   0  0  0  0  0  0  0  0  0  0  0  0
    5.7760    0.0000    0.0000 C   0  0  0  0  0  0  0  0  0  0  0  0
    0.3943   -1.2135    0.0000 C   0  0  0  0  0  0  0  0  0  0  0  0
   -1.0323   -0.7500    0.0000 C   0  0  0  0  0  0  0  0  0  0  0  0
  1  2  1  0
  2  3  1  0
  3  4  2  0
  4  5  1  0
  5  6  2  0
  6  7  1  0
  7  8  2  0
  8  9  1  0
  9 10  1  0
 10 11  2  0
 11 12  1  0
 12 13  1  0
 13 14  1  0
 14 15  1  0
 15 16  1  0
 16 17  2  0
 17 18  1  0
 18 19  2  0
 19 20  1  0
 20 21  2  0
 12 22  2  0
 22 23  1  0
 23 24  2  0
 24 25  1  0
 25 26  1  0
 26 27  2  0
  6 28  1  0
 28 29  1  0
 29 30  2  0
 29 31  1  0
 31 32  1  0
 32 33  1  0
 32 34  1  0
 28 35  1  0
 35 36  1  0
  8  3  1  0
 27 10  1  0
 36  5  1  0
 21 13  1  0
 26 22  1  0
 21 16  1  0
M  END
>  <Compound_ID>  (740) 
CHEMBL458415

>  <Molecule Name>  (740) 
GSK-2186269A

>  <Molecular Weight>  (740) 
483.58

>  <AlogP>  (740) 
3.86

>  <Smiles>  (740) 
COc1cc2c(cc1Nc1nc(N3CCc4ccccc43)c3cc[nH]c3n1)N(C(=O)CN(C)C)CC2

>  <Standard Type>  (740) 
Inhibition

>  <Standard Relation>  (740) 
'='

>  <Standard Units>  (740) 
%

>  <Standard Value>  (740) 
0.79

>  <Assay ChEMBL ID>  (740) 
CHEMBL1962184

>  <Assay Description>  (740) 
GSK_PKIS: TRKA mean inhibition at 0.1 uM [Nanosyn]

>  <BAO Format ID>  (740) 
BAO_0000357

>  <BAO Label>  (740) 
single protein format

>  <Assay Organism>  (740) 
None

>  <Target ChEMBL ID>  (740) 
CHEMBL2815

>  <Target Name>  (740) 
Nerve growth factor receptor Trk-A

>  <Target Organism>  (740) 
Homo sapiens

>  <Target Type>  (740) 
SINGLE PROTEIN

>  <Document ChEMBL ID>  (740) 
CHEMBL1961873

>  <Source Description>  (740) 
GSK Published Kinase Inhibitor Set

>  <Document Journal>  (740) 
nan

>  <Document Year>  (740) 
nan

>  <Active>  (740) 
0.0

>  <bits>  (740) 
<rdkit.DataStructs.cDataStructs.ExplicitBitVect object at 0x00000159F540C0B0>

>  <Group>  (740) 
G2

$$$$

     RDKit          2D

 29 31  0  0  0  0  0  0  0  0999 V2000
   -2.8950  -11.4132    0.0000 C   0  0  0  0  0  0  0  0  0  0  0  0
   -2.4314   -9.9866    0.0000 N   0  0  0  0  0  0  0  0  0  0  0  0
   -0.9642   -9.6747    0.0000 C   0  0  0  0  0  0  0  0  0  0  0  0
   -3.4351   -8.8719    0.0000 C   0  0  0  0  0  0  0  0  0  0  0  0
   -2.9716   -7.4453    0.0000 C   0  0  0  0  0  0  0  0  0  0  0  0
   -1.5450   -7.9088    0.0000 C   0  0  0  0  0  0  0  0  0  0  0  0
   -4.3982   -6.9818    0.0000 C   0  0  0  0  0  0  0  0  0  0  0  0
   -2.5081   -6.0187    0.0000 C   0  0  0  0  0  0  0  0  0  0  0  0
   -1.0409   -5.7068    0.0000 N   0  0  0  0  0  0  0  0  0  0  0  0
   -0.5773   -4.2803    0.0000 C   0  0  0  0  0  0  0  0  0  0  0  0
   -1.5810   -3.1655    0.0000 O   0  0  0  0  0  0  0  0  0  0  0  0
    0.8899   -3.9684    0.0000 C   0  0  0  0  0  0  0  0  0  0  0  0
    2.0046   -4.9721    0.0000 C   0  0  0  0  0  0  0  0  0  0  0  0
    3.3037   -4.2221    0.0000 C   0  0  0  0  0  0  0  0  0  0  0  0
    2.9918   -2.7549    0.0000 C   0  0  0  0  0  0  0  0  0  0  0  0
    1.5000   -2.5981    0.0000 N   0  0  0  0  0  0  0  0  0  0  0  0
    0.7500   -1.2990    0.0000 C   0  0  0  0  0  0  0  0  0  0  0  0
    1.5000    0.0000    0.0000 N   0  0  0  0  0  0  0  0  0  0  0  0
    0.7500    1.2990    0.0000 C   0  0  0  0  0  0  0  0  0  0  0  0
   -0.7500    1.2990    0.0000 C   0  0  0  0  0  0  0  0  0  0  0  0
   -1.5000    0.0000    0.0000 C   0  0  0  0  0  0  0  0  0  0  0  0
   -3.0000    0.0000    0.0000 N   0  0  0  0  0  0  0  0  0  0  0  0
   -3.7500    1.2990    0.0000 C   0  0  0  0  0  0  0  0  0  0  0  0
   -3.0000    2.5981    0.0000 C   0  0  0  0  0  0  0  0  0  0  0  0
   -3.7500    3.8971    0.0000 C   0  0  0  0  0  0  0  0  0  0  0  0
   -5.2500    3.8971    0.0000 C   0  0  0  0  0  0  0  0  0  0  0  0
   -6.0000    2.5981    0.0000 C   0  0  0  0  0  0  0  0  0  0  0  0
   -5.2500    1.2990    0.0000 C   0  0  0  0  0  0  0  0  0  0  0  0
   -0.7500   -1.2990    0.0000 N   0  0  0  0  0  0  0  0  0  0  0  0
  1  2  1  0
  2  3  1  0
  2  4  1  0
  4  5  1  0
  5  6  1  0
  5  7  1  0
  5  8  1  0
  8  9  1  0
  9 10  1  0
 10 11  2  0
 12 10  1  1
 12 13  1  0
 13 14  1  0
 14 15  1  0
 15 16  1  0
 16 17  1  0
 17 18  2  0
 18 19  1  0
 19 20  2  0
 20 21  1  0
 21 22  1  0
 22 23  1  0
 23 24  2  0
 24 25  1  0
 25 26  2  0
 26 27  1  0
 27 28  2  0
 21 29  2  0
 16 12  1  0
 29 17  1  0
 28 23  1  0
M  END
>  <Compound_ID>  (741) 
CHEMBL521000

>  <Molecule Name>  (741) 
nan

>  <Molecular Weight>  (741) 
396.54

>  <AlogP>  (741) 
2.89

>  <Smiles>  (741) 
CN(C)CC(C)(C)CNC(=O)[C@@H]1CCCN1c1nccc(Nc2ccccc2)n1

>  <Standard Type>  (741) 
Inhibition

>  <Standard Relation>  (741) 
'='

>  <Standard Units>  (741) 
%

>  <Standard Value>  (741) 
6.0

>  <Assay ChEMBL ID>  (741) 
CHEMBL965679

>  <Assay Description>  (741) 
Inhibition of TrkA at 10 uM by HTRF assay relative to control

>  <BAO Format ID>  (741) 
BAO_0000357

>  <BAO Label>  (741) 
single protein format

>  <Assay Organism>  (741) 
None

>  <Target ChEMBL ID>  (741) 
CHEMBL2815

>  <Target Name>  (741) 
Nerve growth factor receptor Trk-A

>  <Target Organism>  (741) 
Homo sapiens

>  <Target Type>  (741) 
SINGLE PROTEIN

>  <Document ChEMBL ID>  (741) 
CHEMBL1150387

>  <Source Description>  (741) 
Scientific Literature

>  <Document Journal>  (741) 
J Med Chem

>  <Document Year>  (741) 
2008.0

>  <Active>  (741) 
0.0

>  <bits>  (741) 
<rdkit.DataStructs.cDataStructs.ExplicitBitVect object at 0x00000159F540E490>

>  <Group>  (741) 
G2

$$$$

     RDKit          2D

 27 31  0  0  0  0  0  0  0  0999 V2000
   -0.7500   -3.8971    0.0000 O   0  0  0  0  0  0  0  0  0  0  0  0
    0.7500   -3.8971    0.0000 C   0  0  0  0  0  0  0  0  0  0  0  0
    1.5000   -2.5981    0.0000 C   0  0  0  0  0  0  0  0  0  0  0  0
    0.7500   -1.2990    0.0000 C   0  0  0  0  0  0  0  0  0  0  0  0
    1.5000    0.0000    0.0000 C   0  0  0  0  0  0  0  0  0  0  0  0
    0.7500    1.2990    0.0000 C   0  0  0  0  0  0  0  0  0  0  0  0
   -0.7500    1.2990    0.0000 C   0  0  0  0  0  0  0  0  0  0  0  0
   -1.7537    2.4138    0.0000 C   0  0  0  0  0  0  0  0  0  0  0  0
   -3.1240    1.8037    0.0000 C   0  0  0  0  0  0  0  0  0  0  0  0
   -4.4231    2.5537    0.0000 C   0  0  0  0  0  0  0  0  0  0  0  0
   -5.7934    1.9435    0.0000 N   0  0  0  0  0  0  0  0  0  0  0  0
   -6.7971    3.0583    0.0000 N   0  0  0  0  0  0  0  0  0  0  0  0
   -6.0471    4.3573    0.0000 C   0  0  0  0  0  0  0  0  0  0  0  0
   -6.5106    5.7839    0.0000 C   0  0  0  0  0  0  0  0  0  0  0  0
   -5.5069    6.8986    0.0000 C   0  0  0  0  0  0  0  0  0  0  0  0
   -4.0397    6.5867    0.0000 C   0  0  0  0  0  0  0  0  0  0  0  0
   -3.5761    5.1602    0.0000 N   0  0  0  0  0  0  0  0  0  0  0  0
   -4.5798    4.0454    0.0000 C   0  0  0  0  0  0  0  0  0  0  0  0
   -2.9672    0.3119    0.0000 N   0  0  0  0  0  0  0  0  0  0  0  0
   -1.5000    0.0000    0.0000 C   0  0  0  0  0  0  0  0  0  0  0  0
   -0.7500   -1.2990    0.0000 C   0  0  0  0  0  0  0  0  0  0  0  0
    1.5000   -5.1962    0.0000 C   0  0  0  0  0  0  0  0  0  0  0  0
    0.7500   -6.4952    0.0000 C   0  0  0  0  0  0  0  0  0  0  0  0
    1.5000   -7.7942    0.0000 C   0  0  0  0  0  0  0  0  0  0  0  0
    3.0000   -7.7942    0.0000 C   0  0  0  0  0  0  0  0  0  0  0  0
    3.7500   -6.4952    0.0000 C   0  0  0  0  0  0  0  0  0  0  0  0
    3.0000   -5.1962    0.0000 C   0  0  0  0  0  0  0  0  0  0  0  0
  1  2  2  0
  2  3  1  0
  3  4  1  0
  4  5  2  0
  5  6  1  0
  6  7  2  0
  7  8  1  0
  8  9  2  0
  9 10  1  0
 10 11  2  0
 11 12  1  0
 12 13  1  0
 13 14  2  0
 14 15  1  0
 15 16  2  0
 16 17  1  0
 17 18  2  0
  9 19  1  0
 19 20  1  0
 20 21  2  0
  2 22  1  0
 22 23  2  0
 23 24  1  0
 24 25  2  0
 25 26  1  0
 26 27  2  0
 21  4  1  0
 27 22  1  0
 20  7  1  0
 18 10  1  0
 18 13  1  0
M  END
>  <Compound_ID>  (742) 
CHEMBL1684662

>  <Molecule Name>  (742) 
nan

>  <Molecular Weight>  (742) 
352.4

>  <AlogP>  (742) 
4.53

>  <Smiles>  (742) 
O=C(Cc1ccc2cc(-c3n[nH]c4cccnc34)[nH]c2c1)c1ccccc1

>  <Standard Type>  (742) 
Inhibition

>  <Standard Relation>  (742) 
'='

>  <Standard Units>  (742) 
%

>  <Standard Value>  (742) 
2.0

>  <Assay ChEMBL ID>  (742) 
CHEMBL1685880

>  <Assay Description>  (742) 
Inhibition of TrkA at 0.1 uM

>  <BAO Format ID>  (742) 
BAO_0000357

>  <BAO Label>  (742) 
single protein format

>  <Assay Organism>  (742) 
None

>  <Target ChEMBL ID>  (742) 
CHEMBL2815

>  <Target Name>  (742) 
Nerve growth factor receptor Trk-A

>  <Target Organism>  (742) 
Homo sapiens

>  <Target Type>  (742) 
SINGLE PROTEIN

>  <Document ChEMBL ID>  (742) 
CHEMBL1681705

>  <Source Description>  (742) 
Scientific Literature

>  <Document Journal>  (742) 
Bioorg Med Chem Lett

>  <Document Year>  (742) 
2011.0

>  <Active>  (742) 
0.0

>  <bits>  (742) 
<rdkit.DataStructs.cDataStructs.ExplicitBitVect object at 0x00000159F540C040>

>  <Group>  (742) 
G2

$$$$

     RDKit          2D

 24 28  0  0  0  0  0  0  0  0999 V2000
   -0.5773   -4.2803    0.0000 C   0  0  0  0  0  0  0  0  0  0  0  0
    0.8899   -3.9684    0.0000 C   0  0  0  0  0  0  0  0  0  0  0  0
    2.0046   -4.9721    0.0000 N   0  0  0  0  0  0  0  0  0  0  0  0
    3.3037   -4.2221    0.0000 N   0  0  0  0  0  0  0  0  0  0  0  0
    2.9918   -2.7549    0.0000 C   0  0  0  0  0  0  0  0  0  0  0  0
    3.9955   -1.6402    0.0000 C   0  0  0  0  0  0  0  0  0  0  0  0
    4.3073   -0.1729    0.0000 C   0  0  0  0  0  0  0  0  0  0  0  0
    5.4221   -1.1766    0.0000 C   0  0  0  0  0  0  0  0  0  0  0  0
    1.5000   -2.5981    0.0000 C   0  0  0  0  0  0  0  0  0  0  0  0
    0.7500   -1.2990    0.0000 C   0  0  0  0  0  0  0  0  0  0  0  0
    1.5000    0.0000    0.0000 C   0  0  0  0  0  0  0  0  0  0  0  0
    0.7500    1.2990    0.0000 C   0  0  0  0  0  0  0  0  0  0  0  0
   -0.7500    1.2990    0.0000 C   0  0  0  0  0  0  0  0  0  0  0  0
   -1.7537    2.4138    0.0000 C   0  0  0  0  0  0  0  0  0  0  0  0
   -1.4418    3.8810    0.0000 N   0  0  0  0  0  0  0  0  0  0  0  0
   -2.5565    4.8847    0.0000 C   0  0  0  0  0  0  0  0  0  0  0  0
   -3.9831    4.4211    0.0000 O   0  0  0  0  0  0  0  0  0  0  0  0
   -2.2447    6.3519    0.0000 C   0  0  0  0  0  0  0  0  0  0  0  0
   -2.7082    7.7785    0.0000 C   0  0  0  0  0  0  0  0  0  0  0  0
   -1.2410    7.4666    0.0000 C   0  0  0  0  0  0  0  0  0  0  0  0
   -3.1240    1.8037    0.0000 N   0  0  0  0  0  0  0  0  0  0  0  0
   -2.9672    0.3119    0.0000 O   0  0  0  0  0  0  0  0  0  0  0  0
   -1.5000    0.0000    0.0000 C   0  0  0  0  0  0  0  0  0  0  0  0
   -0.7500   -1.2990    0.0000 C   0  0  0  0  0  0  0  0  0  0  0  0
  1  2  1  0
  2  3  1  0
  3  4  1  0
  4  5  2  0
  5  6  1  0
  6  7  1  0
  7  8  1  0
  5  9  1  0
  9 10  1  0
 10 11  2  0
 11 12  1  0
 12 13  2  0
 13 14  1  0
 14 15  1  0
 15 16  1  0
 16 17  2  0
 16 18  1  0
 18 19  1  0
 19 20  1  0
 14 21  2  0
 21 22  1  0
 22 23  1  0
 23 24  2  0
  9  2  2  0
 24 10  1  0
  8  6  1  0
 23 13  1  0
 20 18  1  0
M  END
>  <Compound_ID>  (743) 
CHEMBL4088455

>  <Molecule Name>  (743) 
nan

>  <Molecular Weight>  (743) 
322.37

>  <AlogP>  (743) 
3.75

>  <Smiles>  (743) 
Cc1[nH]nc(C2CC2)c1-c1ccc2c(NC(=O)C3CC3)noc2c1

>  <Standard Type>  (743) 
Inhibition

>  <Standard Relation>  (743) 
'='

>  <Standard Units>  (743) 
%

>  <Standard Value>  (743) 
3.7

>  <Assay ChEMBL ID>  (743) 
CHEMBL4057609

>  <Assay Description>  (743) 
Inhibition of TRKA (unknown origin) at 0.49 uM relative to control

>  <BAO Format ID>  (743) 
BAO_0000357

>  <BAO Label>  (743) 
single protein format

>  <Assay Organism>  (743) 
Homo sapiens

>  <Target ChEMBL ID>  (743) 
CHEMBL2815

>  <Target Name>  (743) 
Nerve growth factor receptor Trk-A

>  <Target Organism>  (743) 
Homo sapiens

>  <Target Type>  (743) 
SINGLE PROTEIN

>  <Document ChEMBL ID>  (743) 
CHEMBL4052759

>  <Source Description>  (743) 
Scientific Literature

>  <Document Journal>  (743) 
Bioorg Med Chem Lett

>  <Document Year>  (743) 
2017.0

>  <Active>  (743) 
0.0

>  <bits>  (743) 
<rdkit.DataStructs.cDataStructs.ExplicitBitVect object at 0x00000159F7932500>

>  <Group>  (743) 
G2

$$$$

     RDKit          2D

 31 34  0  0  0  0  0  0  0  0999 V2000
    3.0000   -5.1962    0.0000 O   0  0  0  0  0  0  0  0  0  0  0  0
    1.5000   -5.1962    0.0000 C   0  0  0  0  0  0  0  0  0  0  0  0
    0.7500   -3.8971    0.0000 N   0  0  0  0  0  0  0  0  0  0  0  0
    1.5000   -2.5981    0.0000 C   0  0  0  0  0  0  0  0  0  0  0  0
    0.7500   -1.2990    0.0000 C   0  0  0  0  0  0  0  0  0  0  0  0
    1.5000    0.0000    0.0000 C   0  0  0  0  0  0  0  0  0  0  0  0
    0.7500    1.2990    0.0000 C   0  0  0  0  0  0  0  0  0  0  0  0
   -0.7500    1.2990    0.0000 N   0  0  0  0  0  0  0  0  0  0  0  0
   -1.5000    0.0000    0.0000 C   0  0  0  0  0  0  0  0  0  0  0  0
   -0.7500   -1.2990    0.0000 C   0  0  0  0  0  0  0  0  0  0  0  0
    0.7500   -6.4952    0.0000 C   0  0  0  0  0  0  0  0  0  0  0  0
   -0.7500   -6.4952    0.0000 C   0  0  0  0  0  0  0  0  0  0  0  0
   -1.5000   -7.7942    0.0000 C   0  0  0  0  0  0  0  0  0  0  0  0
   -0.7500   -9.0933    0.0000 C   0  0  0  0  0  0  0  0  0  0  0  0
    0.7500   -9.0933    0.0000 C   0  0  0  0  0  0  0  0  0  0  0  0
    1.5000  -10.3923    0.0000 N   0  0  0  0  0  0  0  0  0  0  0  0
    0.7500  -11.6913    0.0000 C   0  0  0  0  0  0  0  0  0  0  0  0
   -0.7500  -11.6913    0.0000 C   0  0  0  0  0  0  0  0  0  0  0  0
   -1.5000  -12.9904    0.0000 C   0  0  0  0  0  0  0  0  0  0  0  0
   -3.0000  -12.9904    0.0000 N   0  0  0  0  0  0  0  0  0  0  0  0
   -3.7500  -11.6913    0.0000 C   0  0  0  0  0  0  0  0  0  0  0  0
   -3.0000  -10.3923    0.0000 C   0  0  0  0  0  0  0  0  0  0  0  0
   -3.7500   -9.0933    0.0000 C   0  0  0  0  0  0  0  0  0  0  0  0
   -5.2500   -9.0933    0.0000 C   0  0  0  0  0  0  0  0  0  0  0  0
   -6.0000  -10.3923    0.0000 C   0  0  0  0  0  0  0  0  0  0  0  0
   -7.5000  -10.3923    0.0000 Br  0  0  0  0  0  0  0  0  0  0  0  0
   -5.2500  -11.6913    0.0000 C   0  0  0  0  0  0  0  0  0  0  0  0
   -0.7500  -14.2894    0.0000 N   0  0  0  0  0  0  0  0  0  0  0  0
    0.7500  -14.2894    0.0000 C   0  0  0  0  0  0  0  0  0  0  0  0
    1.5000  -12.9904    0.0000 N   0  0  0  0  0  0  0  0  0  0  0  0
    1.5000   -7.7942    0.0000 C   0  0  0  0  0  0  0  0  0  0  0  0
  1  2  2  0
  2  3  1  0
  3  4  1  0
  4  5  1  0
  5  6  2  0
  6  7  1  0
  7  8  2  0
  8  9  1  0
  9 10  2  0
  2 11  1  0
 11 12  2  0
 12 13  1  0
 13 14  2  0
 14 15  1  0
 15 16  1  0
 16 17  1  0
 17 18  2  0
 18 19  1  0
 19 20  1  0
 20 21  1  0
 21 22  2  0
 22 23  1  0
 23 24  2  0
 24 25  1  0
 25 26  1  0
 25 27  2  0
 19 28  2  0
 28 29  1  0
 29 30  2  0
 15 31  2  0
 10  5  1  0
 31 11  1  0
 30 17  1  0
 27 21  1  0
M  END
>  <Compound_ID>  (744) 
CHEMBL482513

>  <Molecule Name>  (744) 
nan

>  <Molecular Weight>  (744) 
475.35

>  <AlogP>  (744) 
5.05

>  <Smiles>  (744) 
O=C(NCc1ccncc1)c1cccc(Nc2cc(Nc3cccc(Br)c3)ncn2)c1

>  <Standard Type>  (744) 
Inhibition

>  <Standard Relation>  (744) 
'='

>  <Standard Units>  (744) 
%

>  <Standard Value>  (744) 
8.0

>  <Assay ChEMBL ID>  (744) 
CHEMBL965679

>  <Assay Description>  (744) 
Inhibition of TrkA at 10 uM by HTRF assay relative to control

>  <BAO Format ID>  (744) 
BAO_0000357

>  <BAO Label>  (744) 
single protein format

>  <Assay Organism>  (744) 
None

>  <Target ChEMBL ID>  (744) 
CHEMBL2815

>  <Target Name>  (744) 
Nerve growth factor receptor Trk-A

>  <Target Organism>  (744) 
Homo sapiens

>  <Target Type>  (744) 
SINGLE PROTEIN

>  <Document ChEMBL ID>  (744) 
CHEMBL1150387

>  <Source Description>  (744) 
Scientific Literature

>  <Document Journal>  (744) 
J Med Chem

>  <Document Year>  (744) 
2008.0

>  <Active>  (744) 
0.0

>  <bits>  (744) 
<rdkit.DataStructs.cDataStructs.ExplicitBitVect object at 0x00000159F79326C0>

>  <Group>  (744) 
G2

$$$$

     RDKit          2D

 35 38  0  0  0  0  0  0  0  0999 V2000
    3.7500   -1.2990    0.0000 C   0  0  0  0  0  0  0  0  0  0  0  0
    3.0000    0.0000    0.0000 O   0  0  0  0  0  0  0  0  0  0  0  0
    1.5000    0.0000    0.0000 C   0  0  0  0  0  0  0  0  0  0  0  0
    0.7500   -1.2990    0.0000 C   0  0  0  0  0  0  0  0  0  0  0  0
   -0.7500   -1.2990    0.0000 C   0  0  0  0  0  0  0  0  0  0  0  0
   -1.5000    0.0000    0.0000 C   0  0  0  0  0  0  0  0  0  0  0  0
   -0.7500    1.2990    0.0000 C   0  0  0  0  0  0  0  0  0  0  0  0
   -1.5000    2.5981    0.0000 N   0  0  0  0  0  0  0  0  0  0  0  0
   -0.7500    3.8971    0.0000 C   0  0  0  0  0  0  0  0  0  0  0  0
    0.7500    3.8971    0.0000 C   0  0  0  0  0  0  0  0  0  0  0  0
    1.5000    5.1962    0.0000 C   0  0  0  0  0  0  0  0  0  0  0  0
    3.0000    5.1962    0.0000 N   0  0  0  0  0  0  0  0  0  0  0  0
    3.7500    3.8971    0.0000 C   0  0  0  0  0  0  0  0  0  0  0  0
    3.0000    2.5981    0.0000 C   0  0  0  0  0  0  0  0  0  0  0  0
    3.7500    1.2990    0.0000 C   0  0  0  0  0  0  0  0  0  0  0  0
    5.2500    1.2990    0.0000 C   0  0  0  0  0  0  0  0  0  0  0  0
    6.0000    2.5981    0.0000 C   0  0  0  0  0  0  0  0  0  0  0  0
    7.5000    2.5981    0.0000 C   0  0  0  0  0  0  0  0  0  0  0  0
    8.2500    3.8971    0.0000 O   0  0  0  0  0  0  0  0  0  0  0  0
    8.2500    1.2990    0.0000 N   0  0  0  0  0  0  0  0  0  0  0  0
    9.7500    1.2990    0.0000 C   0  0  0  0  0  0  0  0  0  0  0  0
    7.5000    0.0000    0.0000 C   0  0  0  0  0  0  0  0  0  0  0  0
    8.2500   -1.2990    0.0000 C   0  0  0  0  0  0  0  0  0  0  0  0
    7.5000   -2.5981    0.0000 C   0  0  0  0  0  0  0  0  0  0  0  0
    6.0000   -2.5981    0.0000 C   0  0  0  0  0  0  0  0  0  0  0  0
    5.2500   -3.8971    0.0000 C   0  0  0  0  0  0  0  0  0  0  0  0
    6.0000   -5.1962    0.0000 C   0  0  0  0  0  0  0  0  0  0  0  0
    7.5000   -5.1962    0.0000 C   0  0  0  0  0  0  0  0  0  0  0  0
    8.2500   -3.8971    0.0000 N   0  0  0  0  0  0  0  0  0  0  0  0
    5.2500    3.8971    0.0000 C   0  0  0  0  0  0  0  0  0  0  0  0
    0.7500    6.4952    0.0000 N   0  0  0  0  0  0  0  0  0  0  0  0
   -0.7500    6.4952    0.0000 C   0  0  0  0  0  0  0  0  0  0  0  0
   -1.5000    7.7942    0.0000 N   0  0  0  0  0  0  0  0  0  0  0  0
   -1.5000    5.1962    0.0000 N   0  0  0  0  0  0  0  0  0  0  0  0
    0.7500    1.2990    0.0000 C   0  0  0  0  0  0  0  0  0  0  0  0
  1  2  1  0
  2  3  1  0
  3  4  2  0
  4  5  1  0
  5  6  2  0
  6  7  1  0
  7  8  1  0
  8  9  1  0
  9 10  2  0
 10 11  1  0
 11 12  1  0
 12 13  1  0
 13 14  2  0
 14 15  1  0
 15 16  2  0
 16 17  1  0
 17 18  1  0
 18 19  2  0
 18 20  1  0
 20 21  1  0
 20 22  1  0
 22 23  1  0
 23 24  1  0
 24 25  2  0
 25 26  1  0
 26 27  2  0
 27 28  1  0
 28 29  2  0
 17 30  2  0
 11 31  2  0
 31 32  1  0
 32 33  1  0
 32 34  2  0
  7 35  2  0
 35  3  1  0
 34  9  1  0
 30 13  1  0
 29 24  1  0
M  END
>  <Compound_ID>  (745) 
CHEMBL499865

>  <Molecule Name>  (745) 
nan

>  <Molecular Weight>  (745) 
469.55

>  <AlogP>  (745) 
4.26

>  <Smiles>  (745) 
COc1cccc(Nc2cc(Nc3cccc(C(=O)N(C)CCc4ccccn4)c3)nc(N)n2)c1

>  <Standard Type>  (745) 
Inhibition

>  <Standard Relation>  (745) 
'='

>  <Standard Units>  (745) 
%

>  <Standard Value>  (745) 
9.0

>  <Assay ChEMBL ID>  (745) 
CHEMBL965679

>  <Assay Description>  (745) 
Inhibition of TrkA at 10 uM by HTRF assay relative to control

>  <BAO Format ID>  (745) 
BAO_0000357

>  <BAO Label>  (745) 
single protein format

>  <Assay Organism>  (745) 
None

>  <Target ChEMBL ID>  (745) 
CHEMBL2815

>  <Target Name>  (745) 
Nerve growth factor receptor Trk-A

>  <Target Organism>  (745) 
Homo sapiens

>  <Target Type>  (745) 
SINGLE PROTEIN

>  <Document ChEMBL ID>  (745) 
CHEMBL1150387

>  <Source Description>  (745) 
Scientific Literature

>  <Document Journal>  (745) 
J Med Chem

>  <Document Year>  (745) 
2008.0

>  <Active>  (745) 
0.0

>  <bits>  (745) 
<rdkit.DataStructs.cDataStructs.ExplicitBitVect object at 0x00000159F7932F80>

>  <Group>  (745) 
G2

$$$$

     RDKit          2D

 38 41  0  0  0  0  0  0  0  0999 V2000
   -6.2940    7.2357    0.0000 C   0  0  0  0  0  0  0  0  0  0  0  0
   -5.1793    6.2320    0.0000 O   0  0  0  0  0  0  0  0  0  0  0  0
   -5.4912    4.7648    0.0000 C   0  0  0  0  0  0  0  0  0  0  0  0
   -6.9177    4.3013    0.0000 C   0  0  0  0  0  0  0  0  0  0  0  0
   -7.2296    2.8340    0.0000 C   0  0  0  0  0  0  0  0  0  0  0  0
   -8.6562    2.3705    0.0000 C   0  0  0  0  0  0  0  0  0  0  0  0
   -6.1149    1.8303    0.0000 C   0  0  0  0  0  0  0  0  0  0  0  0
   -6.4268    0.3631    0.0000 N   0  0  0  0  0  0  0  0  0  0  0  0
   -7.8533   -0.1004    0.0000 C   0  0  0  0  0  0  0  0  0  0  0  0
   -5.3120   -0.6406    0.0000 C   0  0  0  0  0  0  0  0  0  0  0  0
   -3.8855   -0.1771    0.0000 O   0  0  0  0  0  0  0  0  0  0  0  0
   -5.6239   -2.1078    0.0000 C   0  0  0  0  0  0  0  0  0  0  0  0
   -4.5092   -3.1115    0.0000 N   0  0  0  0  0  0  0  0  0  0  0  0
   -4.8211   -4.5787    0.0000 C   0  0  0  0  0  0  0  0  0  0  0  0
   -3.0826   -2.6480    0.0000 C   0  0  0  0  0  0  0  0  0  0  0  0
   -4.6883    2.2939    0.0000 C   0  0  0  0  0  0  0  0  0  0  0  0
   -4.3764    3.7611    0.0000 C   0  0  0  0  0  0  0  0  0  0  0  0
   -2.9499    4.2246    0.0000 N   0  0  0  0  0  0  0  0  0  0  0  0
   -1.8351    3.2209    0.0000 C   0  0  0  0  0  0  0  0  0  0  0  0
   -0.4086    3.6844    0.0000 N   0  0  0  0  0  0  0  0  0  0  0  0
    0.7062    2.6807    0.0000 C   0  0  0  0  0  0  0  0  0  0  0  0
    2.1328    3.1443    0.0000 N   0  0  0  0  0  0  0  0  0  0  0  0
    3.2475    2.1406    0.0000 C   0  0  0  0  0  0  0  0  0  0  0  0
    2.9356    0.6734    0.0000 C   0  0  0  0  0  0  0  0  0  0  0  0
    4.0503   -0.3303    0.0000 C   0  0  0  0  0  0  0  0  0  0  0  0
    5.4769    0.1332    0.0000 C   0  0  0  0  0  0  0  0  0  0  0  0
    5.7888    1.6004    0.0000 C   0  0  0  0  0  0  0  0  0  0  0  0
    7.2154    2.0639    0.0000 F   0  0  0  0  0  0  0  0  0  0  0  0
    4.6741    2.6041    0.0000 C   0  0  0  0  0  0  0  0  0  0  0  0
    4.9859    4.0713    0.0000 C   0  0  0  0  0  0  0  0  0  0  0  0
    6.4125    4.5348    0.0000 N   0  0  0  0  0  0  0  0  0  0  0  0
    3.8712    5.0750    0.0000 O   0  0  0  0  0  0  0  0  0  0  0  0
    0.3943    1.2135    0.0000 C   0  0  0  0  0  0  0  0  0  0  0  0
    1.2760    0.0000    0.0000 C   0  0  0  0  0  0  0  0  0  0  0  0
    0.3943   -1.2135    0.0000 C   0  0  0  0  0  0  0  0  0  0  0  0
   -1.0323   -0.7500    0.0000 N   0  0  0  0  0  0  0  0  0  0  0  0
   -1.0323    0.7500    0.0000 C   0  0  0  0  0  0  0  0  0  0  0  0
   -2.1470    1.7537    0.0000 N   0  0  0  0  0  0  0  0  0  0  0  0
  1  2  1  0
  2  3  1  0
  3  4  2  0
  4  5  1  0
  5  6  1  0
  5  7  2  0
  7  8  1  0
  8  9  1  0
  8 10  1  0
 10 11  2  0
 10 12  1  0
 12 13  1  0
 13 14  1  0
 13 15  1  0
  7 16  1  0
 16 17  2  0
 17 18  1  0
 18 19  1  0
 19 20  2  0
 20 21  1  0
 21 22  1  0
 22 23  1  0
 23 24  2  0
 24 25  1  0
 25 26  2  0
 26 27  1  0
 27 28  1  0
 27 29  2  0
 29 30  1  0
 30 31  1  0
 30 32  2  0
 21 33  2  0
 33 34  1  0
 34 35  2  0
 35 36  1  0
 36 37  1  0
 37 38  2  0
 17  3  1  0
 38 19  1  0
 29 23  1  0
 37 33  1  0
M  END
>  <Compound_ID>  (746) 
CHEMBL467581

>  <Molecule Name>  (746) 
GSK-2219385A

>  <Molecular Weight>  (746) 
520.57

>  <AlogP>  (746) 
3.52

>  <Smiles>  (746) 
COc1cc(C)c(N(C)C(=O)CN(C)C)cc1Nc1nc(Nc2cccc(F)c2C(N)=O)c2cc[nH]c2n1

>  <Standard Type>  (746) 
Inhibition

>  <Standard Relation>  (746) 
'='

>  <Standard Units>  (746) 
%

>  <Standard Value>  (746) 
1.62

>  <Assay ChEMBL ID>  (746) 
CHEMBL1962184

>  <Assay Description>  (746) 
GSK_PKIS: TRKA mean inhibition at 0.1 uM [Nanosyn]

>  <BAO Format ID>  (746) 
BAO_0000357

>  <BAO Label>  (746) 
single protein format

>  <Assay Organism>  (746) 
None

>  <Target ChEMBL ID>  (746) 
CHEMBL2815

>  <Target Name>  (746) 
Nerve growth factor receptor Trk-A

>  <Target Organism>  (746) 
Homo sapiens

>  <Target Type>  (746) 
SINGLE PROTEIN

>  <Document ChEMBL ID>  (746) 
CHEMBL1961873

>  <Source Description>  (746) 
GSK Published Kinase Inhibitor Set

>  <Document Journal>  (746) 
nan

>  <Document Year>  (746) 
nan

>  <Active>  (746) 
0.0

>  <bits>  (746) 
<rdkit.DataStructs.cDataStructs.ExplicitBitVect object at 0x00000159F79330D0>

>  <Group>  (746) 
G2

$$$$

     RDKit          2D

 33 36  0  0  0  0  0  0  0  0999 V2000
    3.0000    0.0000    0.0000 C   0  0  0  0  0  0  0  0  0  0  0  0
    1.5000    0.0000    0.0000 C   0  0  0  0  0  0  0  0  0  0  0  0
    0.7500   -1.2990    0.0000 C   0  0  0  0  0  0  0  0  0  0  0  0
   -0.7500   -1.2990    0.0000 C   0  0  0  0  0  0  0  0  0  0  0  0
   -1.5000   -2.5981    0.0000 O   0  0  0  0  0  0  0  0  0  0  0  0
   -1.5000    0.0000    0.0000 C   0  0  0  0  0  0  0  0  0  0  0  0
   -0.7500    1.2990    0.0000 C   0  0  0  0  0  0  0  0  0  0  0  0
   -1.5000    2.5981    0.0000 C   0  0  0  0  0  0  0  0  0  0  0  0
   -2.9918    2.7549    0.0000 N   0  0  0  0  0  0  0  0  0  0  0  0
   -3.3037    4.2221    0.0000 N   0  0  0  0  0  0  0  0  0  0  0  0
   -4.6740    4.8322    0.0000 C   0  0  0  0  0  0  0  0  0  0  0  0
   -4.8308    6.3240    0.0000 C   0  0  0  0  0  0  0  0  0  0  0  0
   -4.9876    7.8158    0.0000 N   0  0  0  0  0  0  0  0  0  0  0  0
   -2.0046    4.9721    0.0000 C   0  0  0  0  0  0  0  0  0  0  0  0
   -0.8899    3.9684    0.0000 C   0  0  0  0  0  0  0  0  0  0  0  0
    0.5773    4.2803    0.0000 C   0  0  0  0  0  0  0  0  0  0  0  0
    1.5810    3.1655    0.0000 C   0  0  0  0  0  0  0  0  0  0  0  0
    3.0482    3.4774    0.0000 C   0  0  0  0  0  0  0  0  0  0  0  0
    4.0519    2.3627    0.0000 N   0  0  0  0  0  0  0  0  0  0  0  0
    5.5192    2.6746    0.0000 C   0  0  0  0  0  0  0  0  0  0  0  0
    6.5229    1.5598    0.0000 C   0  0  0  0  0  0  0  0  0  0  0  0
    7.9901    1.8717    0.0000 C   0  0  0  0  0  0  0  0  0  0  0  0
    6.0593    0.1333    0.0000 O   0  0  0  0  0  0  0  0  0  0  0  0
    3.5118    4.9040    0.0000 N   0  0  0  0  0  0  0  0  0  0  0  0
    2.5081    6.0187    0.0000 C   0  0  0  0  0  0  0  0  0  0  0  0
    2.9716    7.4453    0.0000 C   0  0  0  0  0  0  0  0  0  0  0  0
    4.4388    7.7572    0.0000 C   0  0  0  0  0  0  0  0  0  0  0  0
    4.9023    9.1838    0.0000 C   0  0  0  0  0  0  0  0  0  0  0  0
    3.8986   10.2985    0.0000 C   0  0  0  0  0  0  0  0  0  0  0  0
    2.4314    9.9866    0.0000 N   0  0  0  0  0  0  0  0  0  0  0  0
    1.9679    8.5600    0.0000 C   0  0  0  0  0  0  0  0  0  0  0  0
    1.0409    5.7068    0.0000 N   0  0  0  0  0  0  0  0  0  0  0  0
    0.7500    1.2990    0.0000 C   0  0  0  0  0  0  0  0  0  0  0  0
  1  2  1  0
  2  3  2  0
  3  4  1  0
  4  5  1  0
  4  6  2  0
  6  7  1  0
  7  8  1  0
  8  9  2  0
  9 10  1  0
 10 11  1  0
 11 12  1  0
 12 13  3  0
 10 14  1  0
 14 15  2  0
 15 16  1  0
 16 17  2  0
 17 18  1  0
 18 19  1  0
 19 20  1  0
 20 21  1  0
 21 22  1  6
 21 23  1  0
 18 24  2  0
 24 25  1  0
 25 26  1  0
 26 27  2  0
 27 28  1  0
 28 29  2  0
 29 30  1  0
 30 31  2  0
 25 32  2  0
  7 33  2  0
 33  2  1  0
 15  8  1  0
 32 16  1  0
 31 26  1  0
M  END
>  <Compound_ID>  (747) 
CHEMBL560733

>  <Molecule Name>  (747) 
nan

>  <Molecular Weight>  (747) 
441.5

>  <AlogP>  (747) 
3.4

>  <Smiles>  (747) 
Cc1cc(O)cc(-c2nn(CC#N)cc2-c2cc(NC[C@H](C)O)nc(-c3cccnc3)n2)c1

>  <Standard Type>  (747) 
Inhibition

>  <Standard Relation>  (747) 
'='

>  <Standard Units>  (747) 
%

>  <Standard Value>  (747) 
-0.14

>  <Assay ChEMBL ID>  (747) 
CHEMBL1055630

>  <Assay Description>  (747) 
Inhibition of TRKA at 10 uM by HotSpot assay relative to control

>  <BAO Format ID>  (747) 
BAO_0000357

>  <BAO Label>  (747) 
single protein format

>  <Assay Organism>  (747) 
None

>  <Target ChEMBL ID>  (747) 
CHEMBL2815

>  <Target Name>  (747) 
Nerve growth factor receptor Trk-A

>  <Target Organism>  (747) 
Homo sapiens

>  <Target Type>  (747) 
SINGLE PROTEIN

>  <Document ChEMBL ID>  (747) 
CHEMBL1153464

>  <Source Description>  (747) 
Scientific Literature

>  <Document Journal>  (747) 
Bioorg Med Chem Lett

>  <Document Year>  (747) 
2009.0

>  <Active>  (747) 
0.0

>  <bits>  (747) 
<rdkit.DataStructs.cDataStructs.ExplicitBitVect object at 0x00000159F7930430>

>  <Group>  (747) 
G2

$$$$

     RDKit          2D

 23 25  0  0  0  0  0  0  0  0999 V2000
    3.0000    0.0000    0.0000 C   0  0  0  0  0  0  0  0  0  0  0  0
    1.5000    0.0000    0.0000 C   0  0  0  0  0  0  0  0  0  0  0  0
    0.7500   -1.2990    0.0000 C   0  0  0  0  0  0  0  0  0  0  0  0
   -0.7500   -1.2990    0.0000 C   0  0  0  0  0  0  0  0  0  0  0  0
   -1.5000    0.0000    0.0000 C   0  0  0  0  0  0  0  0  0  0  0  0
   -0.7500    1.2990    0.0000 C   0  0  0  0  0  0  0  0  0  0  0  0
    0.7500    1.2990    0.0000 C   0  0  0  0  0  0  0  0  0  0  0  0
    1.2135    2.7256    0.0000 N   0  0  0  0  0  0  0  0  0  0  0  0
    0.0000    3.6073    0.0000 C   0  0  0  0  0  0  0  0  0  0  0  0
    0.0000    5.1073    0.0000 O   0  0  0  0  0  0  0  0  0  0  0  0
   -1.2135    2.7256    0.0000 C   0  0  0  0  0  0  0  0  0  0  0  0
   -2.6401    3.1891    0.0000 N   0  0  0  0  0  0  0  0  0  0  0  0
   -2.9520    4.6564    0.0000 N   0  0  0  0  0  0  0  0  0  0  0  0
   -4.3786    5.1199    0.0000 C   0  0  0  0  0  0  0  0  0  0  0  0
   -4.6904    6.5871    0.0000 C   0  0  0  0  0  0  0  0  0  0  0  0
   -6.1170    7.0506    0.0000 C   0  0  0  0  0  0  0  0  0  0  0  0
   -7.2317    6.0469    0.0000 C   0  0  0  0  0  0  0  0  0  0  0  0
   -8.6583    6.5105    0.0000 S   0  0  0  0  0  0  0  0  0  0  0  0
  -10.0849    6.9740    0.0000 N   0  0  0  0  0  0  0  0  0  0  0  0
   -8.1948    7.9371    0.0000 O   0  0  0  0  0  0  0  0  0  0  0  0
   -9.1218    5.0839    0.0000 O   0  0  0  0  0  0  0  0  0  0  0  0
   -6.9199    4.5797    0.0000 C   0  0  0  0  0  0  0  0  0  0  0  0
   -5.4933    4.1162    0.0000 C   0  0  0  0  0  0  0  0  0  0  0  0
  1  2  1  0
  2  3  2  0
  3  4  1  0
  4  5  2  0
  5  6  1  0
  6  7  2  0
  7  8  1  0
  8  9  1  0
  9 10  2  0
  9 11  1  0
 11 12  2  0
 12 13  1  0
 13 14  1  0
 14 15  2  0
 15 16  1  0
 16 17  2  0
 17 18  1  0
 18 19  1  0
 18 20  2  0
 18 21  2  0
 17 22  1  0
 22 23  2  0
  7  2  1  0
 23 14  1  0
 11  6  1  0
M  END
>  <Compound_ID>  (748) 
CHEMBL1909398

>  <Molecule Name>  (748) 
GW282536X

>  <Molecular Weight>  (748) 
330.37

>  <AlogP>  (748) 
1.41

>  <Smiles>  (748) 
Cc1cccc2c1NC(=O)/C2=N\Nc1ccc(S(N)(=O)=O)cc1

>  <Standard Type>  (748) 
Inhibition

>  <Standard Relation>  (748) 
'='

>  <Standard Units>  (748) 
%

>  <Standard Value>  (748) 
1.49

>  <Assay ChEMBL ID>  (748) 
CHEMBL1962185

>  <Assay Description>  (748) 
GSK_PKIS: TRKA mean inhibition at 1 uM [Nanosyn]

>  <BAO Format ID>  (748) 
BAO_0000357

>  <BAO Label>  (748) 
single protein format

>  <Assay Organism>  (748) 
None

>  <Target ChEMBL ID>  (748) 
CHEMBL2815

>  <Target Name>  (748) 
Nerve growth factor receptor Trk-A

>  <Target Organism>  (748) 
Homo sapiens

>  <Target Type>  (748) 
SINGLE PROTEIN

>  <Document ChEMBL ID>  (748) 
CHEMBL1961873

>  <Source Description>  (748) 
GSK Published Kinase Inhibitor Set

>  <Document Journal>  (748) 
nan

>  <Document Year>  (748) 
nan

>  <Active>  (748) 
0.0

>  <bits>  (748) 
<rdkit.DataStructs.cDataStructs.ExplicitBitVect object at 0x00000159F79310E0>

>  <Group>  (748) 
G2

$$$$

     RDKit          2D

 25 27  0  0  0  0  0  0  0  0999 V2000
    3.7500   -1.2990    0.0000 C   0  0  0  0  0  0  0  0  0  0  0  0
    3.0000    0.0000    0.0000 N   0  0  0  0  0  0  0  0  0  0  0  0
    3.7500    1.2990    0.0000 C   0  0  0  0  0  0  0  0  0  0  0  0
    1.5000    0.0000    0.0000 C   0  0  0  0  0  0  0  0  0  0  0  0
    0.7500   -1.2990    0.0000 C   0  0  0  0  0  0  0  0  0  0  0  0
   -0.7500   -1.2990    0.0000 C   0  0  0  0  0  0  0  0  0  0  0  0
   -1.5000    0.0000    0.0000 C   0  0  0  0  0  0  0  0  0  0  0  0
   -0.7500    1.2990    0.0000 C   0  0  0  0  0  0  0  0  0  0  0  0
    0.7500    1.2990    0.0000 C   0  0  0  0  0  0  0  0  0  0  0  0
   -1.7537    2.4138    0.0000 C   0  0  0  0  0  0  0  0  0  0  0  0
   -1.4418    3.8810    0.0000 C   0  0  0  0  0  0  0  0  0  0  0  0
   -2.5565    4.8847    0.0000 N   0  0  0  0  0  0  0  0  0  0  0  0
   -2.2447    6.3519    0.0000 C   0  0  0  0  0  0  0  0  0  0  0  0
   -0.8181    6.8154    0.0000 C   0  0  0  0  0  0  0  0  0  0  0  0
   -0.5062    8.2826    0.0000 C   0  0  0  0  0  0  0  0  0  0  0  0
   -1.6209    9.2863    0.0000 C   0  0  0  0  0  0  0  0  0  0  0  0
   -1.3091   10.7536    0.0000 S   0  0  0  0  0  0  0  0  0  0  0  0
   -0.9972   12.2208    0.0000 N   0  0  0  0  0  0  0  0  0  0  0  0
    0.1581   10.4417    0.0000 O   0  0  0  0  0  0  0  0  0  0  0  0
   -2.7763   11.0654    0.0000 O   0  0  0  0  0  0  0  0  0  0  0  0
   -3.0475    8.8228    0.0000 C   0  0  0  0  0  0  0  0  0  0  0  0
   -3.3594    7.3556    0.0000 C   0  0  0  0  0  0  0  0  0  0  0  0
   -3.1240    1.8037    0.0000 C   0  0  0  0  0  0  0  0  0  0  0  0
   -4.4231    2.5537    0.0000 O   0  0  0  0  0  0  0  0  0  0  0  0
   -2.9672    0.3119    0.0000 N   0  0  0  0  0  0  0  0  0  0  0  0
  1  2  1  0
  2  3  1  0
  2  4  1  0
  4  5  2  0
  5  6  1  0
  6  7  2  0
  7  8  1  0
  8  9  2  0
  8 10  1  0
 10 11  2  0
 11 12  1  0
 12 13  1  0
 13 14  2  0
 14 15  1  0
 15 16  2  0
 16 17  1  0
 17 18  1  0
 17 19  2  0
 17 20  2  0
 16 21  1  0
 21 22  2  0
 10 23  1  0
 23 24  2  0
 23 25  1  0
  9  4  1  0
 22 13  1  0
 25  7  1  0
M  END
>  <Compound_ID>  (749) 
CHEMBL272414

>  <Molecule Name>  (749) 
GW416469X

>  <Molecular Weight>  (749) 
358.42

>  <AlogP>  (749) 
1.81

>  <Smiles>  (749) 
CN(C)c1ccc2c(c1)/C(=C/Nc1ccc(S(N)(=O)=O)cc1)C(=O)N2

>  <Standard Type>  (749) 
Inhibition

>  <Standard Relation>  (749) 
'='

>  <Standard Units>  (749) 
%

>  <Standard Value>  (749) 
6.93

>  <Assay ChEMBL ID>  (749) 
CHEMBL1962184

>  <Assay Description>  (749) 
GSK_PKIS: TRKA mean inhibition at 0.1 uM [Nanosyn]

>  <BAO Format ID>  (749) 
BAO_0000357

>  <BAO Label>  (749) 
single protein format

>  <Assay Organism>  (749) 
None

>  <Target ChEMBL ID>  (749) 
CHEMBL2815

>  <Target Name>  (749) 
Nerve growth factor receptor Trk-A

>  <Target Organism>  (749) 
Homo sapiens

>  <Target Type>  (749) 
SINGLE PROTEIN

>  <Document ChEMBL ID>  (749) 
CHEMBL1961873

>  <Source Description>  (749) 
GSK Published Kinase Inhibitor Set

>  <Document Journal>  (749) 
nan

>  <Document Year>  (749) 
nan

>  <Active>  (749) 
0.0

>  <bits>  (749) 
<rdkit.DataStructs.cDataStructs.ExplicitBitVect object at 0x00000159F79314D0>

>  <Group>  (749) 
G2

$$$$

     RDKit          2D

 35 38  0  0  0  0  0  0  0  0999 V2000
    3.0000    0.0000    0.0000 C   0  0  0  0  0  0  0  0  0  0  0  0
    1.5000    0.0000    0.0000 C   0  0  0  0  0  0  0  0  0  0  0  0
    0.7500   -1.2990    0.0000 C   0  0  0  0  0  0  0  0  0  0  0  0
   -0.7500   -1.2990    0.0000 C   0  0  0  0  0  0  0  0  0  0  0  0
   -1.5000    0.0000    0.0000 C   0  0  0  0  0  0  0  0  0  0  0  0
   -0.7500    1.2990    0.0000 C   0  0  0  0  0  0  0  0  0  0  0  0
   -1.5000    2.5981    0.0000 N   0  0  0  0  0  0  0  0  0  0  0  0
   -0.7500    3.8971    0.0000 C   0  0  0  0  0  0  0  0  0  0  0  0
   -3.0000    2.5981    0.0000 C   0  0  0  0  0  0  0  0  0  0  0  0
   -3.7500    3.8971    0.0000 C   0  0  0  0  0  0  0  0  0  0  0  0
   -5.2500    3.8971    0.0000 C   0  0  0  0  0  0  0  0  0  0  0  0
   -6.0000    5.1962    0.0000 N   0  0  0  0  0  0  0  0  0  0  0  0
   -5.2500    6.4952    0.0000 C   0  0  0  0  0  0  0  0  0  0  0  0
   -3.7500    6.4952    0.0000 C   0  0  0  0  0  0  0  0  0  0  0  0
   -3.0000    7.7942    0.0000 C   0  0  0  0  0  0  0  0  0  0  0  0
   -3.7500    9.0933    0.0000 C   0  0  0  0  0  0  0  0  0  0  0  0
   -5.2500    9.0933    0.0000 C   0  0  0  0  0  0  0  0  0  0  0  0
   -6.0000   10.3923    0.0000 C   0  0  0  0  0  0  0  0  0  0  0  0
   -7.5000   10.3923    0.0000 O   0  0  0  0  0  0  0  0  0  0  0  0
   -5.2500   11.6913    0.0000 N   0  0  0  0  0  0  0  0  0  0  0  0
   -6.0000   12.9904    0.0000 C   0  0  0  0  0  0  0  0  0  0  0  0
   -5.2500   14.2894    0.0000 C   0  0  0  0  0  0  0  0  0  0  0  0
   -3.7500   14.2894    0.0000 C   0  0  0  0  0  0  0  0  0  0  0  0
   -3.0000   15.5885    0.0000 C   0  0  0  0  0  0  0  0  0  0  0  0
   -3.7500   16.8875    0.0000 C   0  0  0  0  0  0  0  0  0  0  0  0
   -3.0000   18.1865    0.0000 N   0  0  0  0  0  0  0  0  0  0  0  0
   -1.5000   18.1865    0.0000 C   0  0  0  0  0  0  0  0  0  0  0  0
   -3.7500   19.4856    0.0000 C   0  0  0  0  0  0  0  0  0  0  0  0
   -5.2500   16.8875    0.0000 C   0  0  0  0  0  0  0  0  0  0  0  0
   -6.0000   15.5885    0.0000 C   0  0  0  0  0  0  0  0  0  0  0  0
   -6.0000    7.7942    0.0000 C   0  0  0  0  0  0  0  0  0  0  0  0
   -6.0000    2.5981    0.0000 N   0  0  0  0  0  0  0  0  0  0  0  0
   -5.2500    1.2990    0.0000 C   0  0  0  0  0  0  0  0  0  0  0  0
   -3.7500    1.2990    0.0000 N   0  0  0  0  0  0  0  0  0  0  0  0
    0.7500    1.2990    0.0000 C   0  0  0  0  0  0  0  0  0  0  0  0
  1  2  1  0
  2  3  2  0
  3  4  1  0
  4  5  2  0
  5  6  1  0
  6  7  1  0
  7  8  1  0
  7  9  1  0
  9 10  2  0
 10 11  1  0
 11 12  1  0
 12 13  1  0
 13 14  2  0
 14 15  1  0
 15 16  2  0
 16 17  1  0
 17 18  1  0
 18 19  2  0
 18 20  1  0
 20 21  1  0
 21 22  1  0
 22 23  2  0
 23 24  1  0
 24 25  2  0
 25 26  1  0
 26 27  1  0
 26 28  1  0
 25 29  1  0
 29 30  2  0
 17 31  2  0
 11 32  2  0
 32 33  1  0
 33 34  2  0
  6 35  2  0
 35  2  1  0
 34  9  1  0
 31 13  1  0
 30 22  1  0
M  END
>  <Compound_ID>  (750) 
CHEMBL502826

>  <Molecule Name>  (750) 
nan

>  <Molecular Weight>  (750) 
466.59

>  <AlogP>  (750) 
5.29

>  <Smiles>  (750) 
Cc1cccc(N(C)c2cc(Nc3cccc(C(=O)NCc4ccc(N(C)C)cc4)c3)ncn2)c1

>  <Standard Type>  (750) 
Inhibition

>  <Standard Relation>  (750) 
'='

>  <Standard Units>  (750) 
%

>  <Standard Value>  (750) 
8.0

>  <Assay ChEMBL ID>  (750) 
CHEMBL965679

>  <Assay Description>  (750) 
Inhibition of TrkA at 10 uM by HTRF assay relative to control

>  <BAO Format ID>  (750) 
BAO_0000357

>  <BAO Label>  (750) 
single protein format

>  <Assay Organism>  (750) 
None

>  <Target ChEMBL ID>  (750) 
CHEMBL2815

>  <Target Name>  (750) 
Nerve growth factor receptor Trk-A

>  <Target Organism>  (750) 
Homo sapiens

>  <Target Type>  (750) 
SINGLE PROTEIN

>  <Document ChEMBL ID>  (750) 
CHEMBL1150387

>  <Source Description>  (750) 
Scientific Literature

>  <Document Journal>  (750) 
J Med Chem

>  <Document Year>  (750) 
2008.0

>  <Active>  (750) 
0.0

>  <bits>  (750) 
<rdkit.DataStructs.cDataStructs.ExplicitBitVect object at 0x00000159F7931E70>

>  <Group>  (750) 
G2

$$$$

     RDKit          2D

 34 39  0  0  0  0  0  0  0  0999 V2000
    1.1963  -13.9182    0.0000 Cl  0  0  0  0  0  0  0  0  0  0  0  0
    1.1963  -12.4182    0.0000 C   0  0  0  0  0  0  0  0  0  0  0  0
   -0.1027  -11.6682    0.0000 C   0  0  0  0  0  0  0  0  0  0  0  0
   -0.1027  -10.1682    0.0000 C   0  0  0  0  0  0  0  0  0  0  0  0
    1.1963   -9.4182    0.0000 C   0  0  0  0  0  0  0  0  0  0  0  0
    1.5082   -7.9510    0.0000 S   0  0  0  0  0  0  0  0  0  0  0  0
    3.0000   -7.7942    0.0000 C   0  0  0  0  0  0  0  0  0  0  0  0
    3.7500   -6.4952    0.0000 C   0  0  0  0  0  0  0  0  0  0  0  0
    3.0000   -5.1962    0.0000 N   0  0  0  0  0  0  0  0  0  0  0  0
    3.7500   -3.8971    0.0000 C   0  0  0  0  0  0  0  0  0  0  0  0
    3.0000   -2.5981    0.0000 C   0  0  0  0  0  0  0  0  0  0  0  0
    1.5000   -2.5981    0.0000 N   0  0  0  0  0  0  0  0  0  0  0  0
    0.7500   -1.2990    0.0000 C   0  0  0  0  0  0  0  0  0  0  0  0
    1.5000    0.0000    0.0000 N   0  0  0  0  0  0  0  0  0  0  0  0
    0.7500    1.2990    0.0000 C   0  0  0  0  0  0  0  0  0  0  0  0
   -0.7500    1.2990    0.0000 N   0  0  0  0  0  0  0  0  0  0  0  0
   -1.5000    0.0000    0.0000 C   0  0  0  0  0  0  0  0  0  0  0  0
   -0.7500   -1.2990    0.0000 C   0  0  0  0  0  0  0  0  0  0  0  0
   -1.5000   -2.5981    0.0000 C   0  0  0  0  0  0  0  0  0  0  0  0
   -3.0000   -2.5981    0.0000 N   0  0  0  0  0  0  0  0  0  0  0  0
   -3.7500   -3.8971    0.0000 C   0  0  0  0  0  0  0  0  0  0  0  0
   -5.2500   -3.8971    0.0000 C   0  0  0  0  0  0  0  0  0  0  0  0
   -6.0000   -2.5981    0.0000 C   0  0  0  0  0  0  0  0  0  0  0  0
   -7.5000   -2.5981    0.0000 C   0  0  0  0  0  0  0  0  0  0  0  0
   -8.2500   -3.8971    0.0000 C   0  0  0  0  0  0  0  0  0  0  0  0
   -7.5000   -5.1962    0.0000 C   0  0  0  0  0  0  0  0  0  0  0  0
   -6.0000   -5.1962    0.0000 C   0  0  0  0  0  0  0  0  0  0  0  0
   -3.7500   -1.2990    0.0000 C   0  0  0  0  0  0  0  0  0  0  0  0
   -3.0000    0.0000    0.0000 C   0  0  0  0  0  0  0  0  0  0  0  0
    0.7500   -3.8971    0.0000 C   0  0  0  0  0  0  0  0  0  0  0  0
    1.5000   -5.1962    0.0000 C   0  0  0  0  0  0  0  0  0  0  0  0
    3.6101   -9.1645    0.0000 C   0  0  0  0  0  0  0  0  0  0  0  0
    2.4954  -10.1682    0.0000 C   0  0  0  0  0  0  0  0  0  0  0  0
    2.4954  -11.6682    0.0000 C   0  0  0  0  0  0  0  0  0  0  0  0
  1  2  1  0
  2  3  2  0
  3  4  1  0
  4  5  2  0
  5  6  1  0
  6  7  1  0
  7  8  1  0
  8  9  1  0
  9 10  1  0
 10 11  1  0
 11 12  1  0
 12 13  1  0
 13 14  2  0
 14 15  1  0
 15 16  2  0
 16 17  1  0
 17 18  2  0
 18 19  1  0
 19 20  1  0
 20 21  1  0
 21 22  1  0
 22 23  2  0
 23 24  1  0
 24 25  2  0
 25 26  1  0
 26 27  2  0
 20 28  1  0
 28 29  1  0
 12 30  1  0
 30 31  1  0
  7 32  2  0
 32 33  1  0
 33 34  2  0
 34  2  1  0
 33  5  1  0
 31  9  1  0
 18 13  1  0
 27 22  1  0
 29 17  1  0
M  END
>  <Compound_ID>  (751) 
CHEMBL483710

>  <Molecule Name>  (751) 
nan

>  <Molecular Weight>  (751) 
490.08

>  <AlogP>  (751) 
5.23

>  <Smiles>  (751) 
Clc1ccc2sc(CN3CCN(c4ncnc5c4CN(Cc4ccccc4)CC5)CC3)cc2c1

>  <Standard Type>  (751) 
Inhibition

>  <Standard Relation>  (751) 
'='

>  <Standard Units>  (751) 
%

>  <Standard Value>  (751) 
13.0

>  <Assay ChEMBL ID>  (751) 
CHEMBL965679

>  <Assay Description>  (751) 
Inhibition of TrkA at 10 uM by HTRF assay relative to control

>  <BAO Format ID>  (751) 
BAO_0000357

>  <BAO Label>  (751) 
single protein format

>  <Assay Organism>  (751) 
None

>  <Target ChEMBL ID>  (751) 
CHEMBL2815

>  <Target Name>  (751) 
Nerve growth factor receptor Trk-A

>  <Target Organism>  (751) 
Homo sapiens

>  <Target Type>  (751) 
SINGLE PROTEIN

>  <Document ChEMBL ID>  (751) 
CHEMBL1150387

>  <Source Description>  (751) 
Scientific Literature

>  <Document Journal>  (751) 
J Med Chem

>  <Document Year>  (751) 
2008.0

>  <Active>  (751) 
0.0

>  <bits>  (751) 
<rdkit.DataStructs.cDataStructs.ExplicitBitVect object at 0x00000159F79320A0>

>  <Group>  (751) 
G2

$$$$

     RDKit          2D

 25 28  0  0  0  0  0  0  0  0999 V2000
   -3.6221    4.6871    0.0000 C   0  0  0  0  0  0  0  0  0  0  0  0
   -5.0487    4.2236    0.0000 C   0  0  0  0  0  0  0  0  0  0  0  0
   -6.1634    5.2273    0.0000 C   0  0  0  0  0  0  0  0  0  0  0  0
   -5.3605    2.7564    0.0000 C   0  0  0  0  0  0  0  0  0  0  0  0
   -4.2458    1.7527    0.0000 C   0  0  0  0  0  0  0  0  0  0  0  0
   -4.5577    0.2855    0.0000 C   0  0  0  0  0  0  0  0  0  0  0  0
   -5.9843   -0.1781    0.0000 C   0  0  0  0  0  0  0  0  0  0  0  0
   -6.2961   -1.6453    0.0000 N   0  0  0  0  0  0  0  0  0  0  0  0
   -5.1814   -2.6490    0.0000 C   0  0  0  0  0  0  0  0  0  0  0  0
   -5.4933   -4.1162    0.0000 N   0  0  0  0  0  0  0  0  0  0  0  0
   -4.3786   -5.1199    0.0000 C   0  0  0  0  0  0  0  0  0  0  0  0
   -2.9520   -4.6564    0.0000 C   0  0  0  0  0  0  0  0  0  0  0  0
   -2.6401   -3.1891    0.0000 C   0  0  0  0  0  0  0  0  0  0  0  0
   -1.2135   -2.7256    0.0000 C   0  0  0  0  0  0  0  0  0  0  0  0
   -0.0000   -3.6073    0.0000 C   0  0  0  0  0  0  0  0  0  0  0  0
    1.2135   -2.7256    0.0000 N   0  0  0  0  0  0  0  0  0  0  0  0
    0.7500   -1.2990    0.0000 N   0  0  0  0  0  0  0  0  0  0  0  0
    1.5000    0.0000    0.0000 N   0  0  0  0  0  0  0  0  0  0  0  0
    0.7500    1.2990    0.0000 C   0  0  0  0  0  0  0  0  0  0  0  0
   -0.7500    1.2990    0.0000 C   0  0  0  0  0  0  0  0  0  0  0  0
   -1.5000    0.0000    0.0000 C   0  0  0  0  0  0  0  0  0  0  0  0
   -0.7500   -1.2990    0.0000 C   0  0  0  0  0  0  0  0  0  0  0  0
   -3.7548   -2.1855    0.0000 N   0  0  0  0  0  0  0  0  0  0  0  0
   -7.0990    0.8256    0.0000 C   0  0  0  0  0  0  0  0  0  0  0  0
   -6.7871    2.2929    0.0000 C   0  0  0  0  0  0  0  0  0  0  0  0
  1  2  1  0
  2  3  1  0
  2  4  1  0
  4  5  2  0
  5  6  1  0
  6  7  2  0
  7  8  1  0
  8  9  1  0
  9 10  2  0
 10 11  1  0
 11 12  2  0
 12 13  1  0
 13 14  1  0
 14 15  1  0
 15 16  2  0
 16 17  1  0
 17 18  1  0
 18 19  2  0
 19 20  1  0
 20 21  2  0
 21 22  1  0
 13 23  2  0
  7 24  1  0
 24 25  2  0
 25  4  1  0
 23  9  1  0
 22 14  2  0
 22 17  1  0
M  END
>  <Compound_ID>  (752) 
CHEMBL359963

>  <Molecule Name>  (752) 
GW805758X

>  <Molecular Weight>  (752) 
330.4

>  <AlogP>  (752) 
4.05

>  <Smiles>  (752) 
CC(C)c1ccc(Nc2nccc(-c3cnn4ncccc34)n2)cc1

>  <Standard Type>  (752) 
Inhibition

>  <Standard Relation>  (752) 
'='

>  <Standard Units>  (752) 
%

>  <Standard Value>  (752) 
7.94

>  <Assay ChEMBL ID>  (752) 
CHEMBL1962185

>  <Assay Description>  (752) 
GSK_PKIS: TRKA mean inhibition at 1 uM [Nanosyn]

>  <BAO Format ID>  (752) 
BAO_0000357

>  <BAO Label>  (752) 
single protein format

>  <Assay Organism>  (752) 
None

>  <Target ChEMBL ID>  (752) 
CHEMBL2815

>  <Target Name>  (752) 
Nerve growth factor receptor Trk-A

>  <Target Organism>  (752) 
Homo sapiens

>  <Target Type>  (752) 
SINGLE PROTEIN

>  <Document ChEMBL ID>  (752) 
CHEMBL1961873

>  <Source Description>  (752) 
GSK Published Kinase Inhibitor Set

>  <Document Journal>  (752) 
nan

>  <Document Year>  (752) 
nan

>  <Active>  (752) 
0.0

>  <bits>  (752) 
<rdkit.DataStructs.cDataStructs.ExplicitBitVect object at 0x00000159F7933920>

>  <Group>  (752) 
G2

$$$$

     RDKit          2D

 32 35  0  0  0  0  0  0  0  0999 V2000
  -10.0849   -6.9740    0.0000 N   0  0  0  0  0  0  0  0  0  0  0  0
   -8.6583   -6.5105    0.0000 S   0  0  0  0  0  0  0  0  0  0  0  0
   -9.1218   -5.0839    0.0000 O   0  0  0  0  0  0  0  0  0  0  0  0
   -8.1948   -7.9371    0.0000 O   0  0  0  0  0  0  0  0  0  0  0  0
   -7.2317   -6.0469    0.0000 C   0  0  0  0  0  0  0  0  0  0  0  0
   -6.9199   -4.5797    0.0000 C   0  0  0  0  0  0  0  0  0  0  0  0
   -5.4933   -4.1162    0.0000 C   0  0  0  0  0  0  0  0  0  0  0  0
   -4.3786   -5.1199    0.0000 C   0  0  0  0  0  0  0  0  0  0  0  0
   -2.9520   -4.6564    0.0000 N   0  0  0  0  0  0  0  0  0  0  0  0
   -2.6401   -3.1891    0.0000 N   0  0  0  0  0  0  0  0  0  0  0  0
   -1.2135   -2.7256    0.0000 C   0  0  0  0  0  0  0  0  0  0  0  0
   -0.0000   -3.6073    0.0000 C   0  0  0  0  0  0  0  0  0  0  0  0
    0.0000   -5.1073    0.0000 O   0  0  0  0  0  0  0  0  0  0  0  0
    1.2135   -2.7256    0.0000 N   0  0  0  0  0  0  0  0  0  0  0  0
    0.7500   -1.2990    0.0000 C   0  0  0  0  0  0  0  0  0  0  0  0
    1.5000    0.0000    0.0000 C   0  0  0  0  0  0  0  0  0  0  0  0
    0.7500    1.2990    0.0000 C   0  0  0  0  0  0  0  0  0  0  0  0
   -0.7500    1.2990    0.0000 C   0  0  0  0  0  0  0  0  0  0  0  0
   -1.5000    2.5981    0.0000 C   0  0  0  0  0  0  0  0  0  0  0  0
   -3.0000    2.5981    0.0000 O   0  0  0  0  0  0  0  0  0  0  0  0
   -0.7500    3.8971    0.0000 N   0  0  0  0  0  0  0  0  0  0  0  0
   -1.5000    5.1962    0.0000 C   0  0  0  0  0  0  0  0  0  0  0  0
   -0.7500    6.4952    0.0000 C   0  0  0  0  0  0  0  0  0  0  0  0
   -1.5000    7.7942    0.0000 C   0  0  0  0  0  0  0  0  0  0  0  0
   -2.9918    7.9510    0.0000 C   0  0  0  0  0  0  0  0  0  0  0  0
   -3.3037    9.4182    0.0000 N   0  0  0  0  0  0  0  0  0  0  0  0
   -2.0046   10.1682    0.0000 C   0  0  0  0  0  0  0  0  0  0  0  0
   -0.8899    9.1645    0.0000 N   0  0  0  0  0  0  0  0  0  0  0  0
   -1.5000    0.0000    0.0000 C   0  0  0  0  0  0  0  0  0  0  0  0
   -0.7500   -1.2990    0.0000 C   0  0  0  0  0  0  0  0  0  0  0  0
   -4.6904   -6.5871    0.0000 C   0  0  0  0  0  0  0  0  0  0  0  0
   -6.1170   -7.0506    0.0000 C   0  0  0  0  0  0  0  0  0  0  0  0
  1  2  1  0
  2  3  2  0
  2  4  2  0
  2  5  1  0
  5  6  2  0
  6  7  1  0
  7  8  2  0
  8  9  1  0
  9 10  1  0
 10 11  2  0
 11 12  1  0
 12 13  2  0
 12 14  1  0
 14 15  1  0
 15 16  2  0
 16 17  1  0
 17 18  2  0
 18 19  1  0
 19 20  2  0
 19 21  1  0
 21 22  1  0
 22 23  1  0
 23 24  1  0
 24 25  2  0
 25 26  1  0
 26 27  1  0
 27 28  2  0
 18 29  1  0
 29 30  2  0
  8 31  1  0
 31 32  2  0
 32  5  1  0
 30 11  1  0
 30 15  1  0
 28 24  1  0
M  END
>  <Compound_ID>  (753) 
CHEMBL272028

>  <Molecule Name>  (753) 
GW300660X

>  <Molecular Weight>  (753) 
453.48

>  <AlogP>  (753) 
0.8

>  <Smiles>  (753) 
NS(=O)(=O)c1ccc(N/N=C2\C(=O)Nc3ccc(C(=O)NCCc4c[nH]cn4)cc32)cc1

>  <Standard Type>  (753) 
Inhibition

>  <Standard Relation>  (753) 
'='

>  <Standard Units>  (753) 
%

>  <Standard Value>  (753) 
5.55

>  <Assay ChEMBL ID>  (753) 
CHEMBL1962184

>  <Assay Description>  (753) 
GSK_PKIS: TRKA mean inhibition at 0.1 uM [Nanosyn]

>  <BAO Format ID>  (753) 
BAO_0000357

>  <BAO Label>  (753) 
single protein format

>  <Assay Organism>  (753) 
None

>  <Target ChEMBL ID>  (753) 
CHEMBL2815

>  <Target Name>  (753) 
Nerve growth factor receptor Trk-A

>  <Target Organism>  (753) 
Homo sapiens

>  <Target Type>  (753) 
SINGLE PROTEIN

>  <Document ChEMBL ID>  (753) 
CHEMBL1961873

>  <Source Description>  (753) 
GSK Published Kinase Inhibitor Set

>  <Document Journal>  (753) 
nan

>  <Document Year>  (753) 
nan

>  <Active>  (753) 
0.0

>  <bits>  (753) 
<rdkit.DataStructs.cDataStructs.ExplicitBitVect object at 0x00000159F7932B90>

>  <Group>  (753) 
G2

$$$$

     RDKit          2D

 36 40  0  0  0  0  0  0  0  0999 V2000
   -2.0143    8.6263    0.0000 C   0  0  0  0  0  0  0  0  0  0  0  0
   -3.4408    8.1628    0.0000 C   0  0  0  0  0  0  0  0  0  0  0  0
   -3.7527    6.6955    0.0000 C   0  0  0  0  0  0  0  0  0  0  0  0
   -2.6380    5.6918    0.0000 C   0  0  0  0  0  0  0  0  0  0  0  0
   -1.2114    6.1554    0.0000 O   0  0  0  0  0  0  0  0  0  0  0  0
   -2.9499    4.2246    0.0000 N   0  0  0  0  0  0  0  0  0  0  0  0
   -1.8351    3.2209    0.0000 C   0  0  0  0  0  0  0  0  0  0  0  0
   -0.4086    3.6844    0.0000 C   0  0  0  0  0  0  0  0  0  0  0  0
    0.7062    2.6807    0.0000 C   0  0  0  0  0  0  0  0  0  0  0  0
    0.3943    1.2135    0.0000 C   0  0  0  0  0  0  0  0  0  0  0  0
    1.2760    0.0000    0.0000 N   0  0  0  0  0  0  0  0  0  0  0  0
    0.3943   -1.2135    0.0000 N   0  0  0  0  0  0  0  0  0  0  0  0
   -1.0323   -0.7500    0.0000 C   0  0  0  0  0  0  0  0  0  0  0  0
   -1.0323    0.7500    0.0000 C   0  0  0  0  0  0  0  0  0  0  0  0
   -2.1470    1.7537    0.0000 C   0  0  0  0  0  0  0  0  0  0  0  0
   -5.1793    6.2320    0.0000 C   0  0  0  0  0  0  0  0  0  0  0  0
   -5.4912    4.7648    0.0000 C   0  0  0  0  0  0  0  0  0  0  0  0
   -6.9177    4.3013    0.0000 C   0  0  0  0  0  0  0  0  0  0  0  0
   -7.2296    2.8340    0.0000 C   0  0  0  0  0  0  0  0  0  0  0  0
   -6.1149    1.8303    0.0000 C   0  0  0  0  0  0  0  0  0  0  0  0
   -6.4268    0.3631    0.0000 F   0  0  0  0  0  0  0  0  0  0  0  0
   -4.6883    2.2939    0.0000 C   0  0  0  0  0  0  0  0  0  0  0  0
   -4.3764    3.7611    0.0000 C   0  0  0  0  0  0  0  0  0  0  0  0
   -6.2940    7.2357    0.0000 N   0  0  0  0  0  0  0  0  0  0  0  0
   -5.9821    8.7029    0.0000 C   0  0  0  0  0  0  0  0  0  0  0  0
   -7.0969    9.7066    0.0000 C   0  0  0  0  0  0  0  0  0  0  0  0
   -6.7850   11.1738    0.0000 C   0  0  0  0  0  0  0  0  0  0  0  0
   -7.8997   12.1775    0.0000 C   0  0  0  0  0  0  0  0  0  0  0  0
   -9.3263   11.7140    0.0000 C   0  0  0  0  0  0  0  0  0  0  0  0
  -10.4410   12.7177    0.0000 C   0  0  0  0  0  0  0  0  0  0  0  0
  -11.5557   13.7214    0.0000 F   0  0  0  0  0  0  0  0  0  0  0  0
   -9.4373   13.8324    0.0000 F   0  0  0  0  0  0  0  0  0  0  0  0
  -11.4447   11.6030    0.0000 F   0  0  0  0  0  0  0  0  0  0  0  0
   -9.6382   10.2468    0.0000 N   0  0  0  0  0  0  0  0  0  0  0  0
   -8.5234    9.2431    0.0000 C   0  0  0  0  0  0  0  0  0  0  0  0
   -4.5556    9.1664    0.0000 N   0  0  0  0  0  0  0  0  0  0  0  0
  1  2  1  0
  2  3  2  0
  3  4  1  0
  4  5  2  0
  4  6  1  0
  6  7  1  0
  7  8  2  0
  8  9  1  0
  9 10  2  0
 10 11  1  0
 11 12  1  0
 12 13  2  0
 13 14  1  0
 14 15  2  0
  3 16  1  0
 16 17  1  0
 17 18  2  0
 18 19  1  0
 19 20  2  0
 20 21  1  0
 20 22  1  0
 22 23  2  0
 16 24  1  0
 24 25  2  0
 25 26  1  0
 26 27  2  0
 27 28  1  0
 28 29  2  0
 29 30  1  0
 30 31  1  0
 30 32  1  0
 30 33  1  0
 29 34  1  0
 34 35  2  0
 25 36  1  0
 36  2  1  0
 15  7  1  0
 23 17  1  0
 35 26  1  0
 14 10  1  0
M  END
>  <Compound_ID>  (754) 
CHEMBL485598

>  <Molecule Name>  (754) 
GSK-317354A

>  <Molecular Weight>  (754) 
494.45

>  <AlogP>  (754) 
5.12

>  <Smiles>  (754) 
CC1=C(C(=O)Nc2ccc3[nH]ncc3c2)C(c2ccc(F)cc2)N=C(c2ccc(C(F)(F)F)nc2)N1

>  <Standard Type>  (754) 
Inhibition

>  <Standard Relation>  (754) 
'='

>  <Standard Units>  (754) 
%

>  <Standard Value>  (754) 
4.07

>  <Assay ChEMBL ID>  (754) 
CHEMBL1962185

>  <Assay Description>  (754) 
GSK_PKIS: TRKA mean inhibition at 1 uM [Nanosyn]

>  <BAO Format ID>  (754) 
BAO_0000357

>  <BAO Label>  (754) 
single protein format

>  <Assay Organism>  (754) 
None

>  <Target ChEMBL ID>  (754) 
CHEMBL2815

>  <Target Name>  (754) 
Nerve growth factor receptor Trk-A

>  <Target Organism>  (754) 
Homo sapiens

>  <Target Type>  (754) 
SINGLE PROTEIN

>  <Document ChEMBL ID>  (754) 
CHEMBL1961873

>  <Source Description>  (754) 
GSK Published Kinase Inhibitor Set

>  <Document Journal>  (754) 
nan

>  <Document Year>  (754) 
nan

>  <Active>  (754) 
0.0

>  <bits>  (754) 
<rdkit.DataStructs.cDataStructs.ExplicitBitVect object at 0x00000159F7931850>

>  <Group>  (754) 
G2

$$$$

     RDKit          2D

 40 45  0  0  0  0  0  0  0  0999 V2000
    5.3011  -10.7993    0.0000 O   0  0  0  0  0  1  0  0  0  0  0  0
    5.1443   -9.3075    0.0000 S   0  0  0  0  0  3  0  0  0  0  0  0
    3.7740   -8.6974    0.0000 C   0  0  0  0  0  0  0  0  0  0  0  0
    3.6172   -7.2057    0.0000 C   0  0  0  0  0  0  0  0  0  0  0  0
    4.8308   -6.3240    0.0000 N   0  0  0  0  0  0  0  0  0  0  0  0
    4.6740   -4.8322    0.0000 C   0  0  0  0  0  0  0  0  0  0  0  0
    3.3037   -4.2221    0.0000 C   0  0  0  0  0  0  0  0  0  0  0  0
    2.0046   -4.9721    0.0000 C   0  0  0  0  0  0  0  0  0  0  0  0
    0.8899   -3.9684    0.0000 C   0  0  0  0  0  0  0  0  0  0  0  0
    1.5000   -2.5981    0.0000 C   0  0  0  0  0  0  0  0  0  0  0  0
    0.7500   -1.2990    0.0000 C   0  0  0  0  0  0  0  0  0  0  0  0
    1.5000    0.0000    0.0000 C   0  0  0  0  0  0  0  0  0  0  0  0
    0.7500    1.2990    0.0000 C   0  0  0  0  0  0  0  0  0  0  0  0
   -0.7500    1.2990    0.0000 C   0  0  0  0  0  0  0  0  0  0  0  0
   -1.5000    2.5981    0.0000 N   0  0  0  0  0  0  0  0  0  0  0  0
   -3.0000    2.5981    0.0000 C   0  0  0  0  0  0  0  0  0  0  0  0
   -3.7500    1.2990    0.0000 N   0  0  0  0  0  0  0  0  0  0  0  0
   -3.0000    0.0000    0.0000 C   0  0  0  0  0  0  0  0  0  0  0  0
   -3.7500   -1.2990    0.0000 N   0  0  0  0  0  0  0  0  0  0  0  0
   -5.2500   -1.2990    0.0000 C   0  0  0  0  0  0  0  0  0  0  0  0
   -6.0000    0.0000    0.0000 C   0  0  0  0  0  0  0  0  0  0  0  0
   -7.5000    0.0000    0.0000 C   0  0  0  0  0  0  0  0  0  0  0  0
   -8.2500   -1.2990    0.0000 C   0  0  0  0  0  0  0  0  0  0  0  0
   -9.7500   -1.2990    0.0000 O   0  0  0  0  0  0  0  0  0  0  0  0
  -10.5000    0.0000    0.0000 C   0  0  0  0  0  0  0  0  0  0  0  0
  -12.0000    0.0000    0.0000 C   0  0  0  0  0  0  0  0  0  0  0  0
  -12.7500    1.2990    0.0000 C   0  0  0  0  0  0  0  0  0  0  0  0
  -14.2500    1.2990    0.0000 C   0  0  0  0  0  0  0  0  0  0  0  0
  -15.0000    0.0000    0.0000 C   0  0  0  0  0  0  0  0  0  0  0  0
  -14.2500   -1.2990    0.0000 C   0  0  0  0  0  0  0  0  0  0  0  0
  -15.0000   -2.5981    0.0000 F   0  0  0  0  0  0  0  0  0  0  0  0
  -12.7500   -1.2990    0.0000 C   0  0  0  0  0  0  0  0  0  0  0  0
   -7.5000   -2.5981    0.0000 C   0  0  0  0  0  0  0  0  0  0  0  0
   -8.2500   -3.8971    0.0000 Cl  0  0  0  0  0  0  0  0  0  0  0  0
   -6.0000   -2.5981    0.0000 C   0  0  0  0  0  0  0  0  0  0  0  0
   -1.5000    0.0000    0.0000 C   0  0  0  0  0  0  0  0  0  0  0  0
   -0.7500   -1.2990    0.0000 C   0  0  0  0  0  0  0  0  0  0  0  0
    2.9918   -2.7549    0.0000 O   0  0  0  0  0  0  0  0  0  0  0  0
    6.2011   -6.9341    0.0000 C   0  0  0  0  0  0  0  0  0  0  0  0
    6.3579   -8.4259    0.0000 C   0  0  0  0  0  0  0  0  0  0  0  0
  1  2  1  0
  2  3  1  0
  3  4  1  0
  4  5  1  0
  5  6  1  0
  6  7  1  0
  7  8  2  0
  8  9  1  0
  9 10  2  0
 10 11  1  0
 11 12  2  0
 12 13  1  0
 13 14  2  0
 14 15  1  0
 15 16  2  0
 16 17  1  0
 17 18  2  0
 18 19  1  0
 19 20  1  0
 20 21  2  0
 21 22  1  0
 22 23  2  0
 23 24  1  0
 24 25  1  0
 25 26  1  0
 26 27  2  0
 27 28  1  0
 28 29  2  0
 29 30  1  0
 30 31  1  0
 30 32  2  0
 23 33  1  0
 33 34  1  0
 33 35  2  0
 18 36  1  0
 36 37  2  0
 10 38  1  0
  5 39  1  0
 39 40  1  0
 40  2  1  0
 38  7  1  0
 37 11  1  0
 36 14  1  0
 35 20  1  0
 32 26  1  0
M  CHG  2   1  -1   2   1
M  END
>  <Compound_ID>  (755) 
CHEMBL1909390

>  <Molecule Name>  (755) 
GW576609A

>  <Molecular Weight>  (755) 
691.1

>  <AlogP>  (755) 
6.57

>  <Smiles>  (755) 
[O-][S+]1CCN(Cc2ccc(-c3ccc4ncnc(Nc5ccc(OCc6cccc(F)c6)c(Cl)c5)c4c3)o2)CC1

>  <Standard Type>  (755) 
Inhibition

>  <Standard Relation>  (755) 
'='

>  <Standard Units>  (755) 
%

>  <Standard Value>  (755) 
3.52

>  <Assay ChEMBL ID>  (755) 
CHEMBL1962184

>  <Assay Description>  (755) 
GSK_PKIS: TRKA mean inhibition at 0.1 uM [Nanosyn]

>  <BAO Format ID>  (755) 
BAO_0000357

>  <BAO Label>  (755) 
single protein format

>  <Assay Organism>  (755) 
None

>  <Target ChEMBL ID>  (755) 
CHEMBL2815

>  <Target Name>  (755) 
Nerve growth factor receptor Trk-A

>  <Target Organism>  (755) 
Homo sapiens

>  <Target Type>  (755) 
SINGLE PROTEIN

>  <Document ChEMBL ID>  (755) 
CHEMBL1961873

>  <Source Description>  (755) 
GSK Published Kinase Inhibitor Set

>  <Document Journal>  (755) 
nan

>  <Document Year>  (755) 
nan

>  <Active>  (755) 
0.0

>  <bits>  (755) 
<rdkit.DataStructs.cDataStructs.ExplicitBitVect object at 0x00000159F79333E0>

>  <Group>  (755) 
G2

$$$$

     RDKit          2D

 25 28  0  0  0  0  0  0  0  0999 V2000
    3.0000   -0.0000    0.0000 C   0  0  0  0  0  0  0  0  0  0  0  0
    3.7500   -1.2990    0.0000 C   0  0  0  0  0  0  0  0  0  0  0  0
    5.2500   -1.2990    0.0000 C   0  0  0  0  0  0  0  0  0  0  0  0
    6.0000   -2.5981    0.0000 C   0  0  0  0  0  0  0  0  0  0  0  0
    5.2500   -3.8971    0.0000 C   0  0  0  0  0  0  0  0  0  0  0  0
    6.0000   -5.1962    0.0000 O   0  0  0  0  0  0  0  0  0  0  0  0
    3.7500   -3.8971    0.0000 C   0  0  0  0  0  0  0  0  0  0  0  0
    3.0000   -2.5981    0.0000 C   0  0  0  0  0  0  0  0  0  0  0  0
    1.5000   -2.5981    0.0000 N   0  0  0  0  0  0  0  0  0  0  0  0
    0.7500   -1.2990    0.0000 C   0  0  0  0  0  0  0  0  0  0  0  0
    1.5000    0.0000    0.0000 C   0  0  0  0  0  0  0  0  0  0  0  0
    0.7500    1.2990    0.0000 C   0  0  0  0  0  0  0  0  0  0  0  0
   -0.7500    1.2990    0.0000 N   0  0  0  0  0  0  0  0  0  0  0  0
   -1.5000    0.0000    0.0000 C   0  0  0  0  0  0  0  0  0  0  0  0
   -3.0000    0.0000    0.0000 C   0  0  0  0  0  0  0  0  0  0  0  0
   -3.7500   -1.2990    0.0000 C   0  0  0  0  0  0  0  0  0  0  0  0
   -5.2500   -1.2990    0.0000 C   0  0  0  0  0  0  0  0  0  0  0  0
   -6.0000    0.0000    0.0000 C   0  0  0  0  0  0  0  0  0  0  0  0
   -7.5000    0.0000    0.0000 C   0  0  0  0  0  0  0  0  0  0  0  0
   -8.2500   -1.2990    0.0000 C   0  0  0  0  0  0  0  0  0  0  0  0
   -7.5000   -2.5981    0.0000 C   0  0  0  0  0  0  0  0  0  0  0  0
   -6.0000   -2.5981    0.0000 N   0  0  0  0  0  0  0  0  0  0  0  0
   -3.0000   -2.5981    0.0000 C   0  0  0  0  0  0  0  0  0  0  0  0
   -1.5000   -2.5981    0.0000 C   0  0  0  0  0  0  0  0  0  0  0  0
   -0.7500   -1.2990    0.0000 C   0  0  0  0  0  0  0  0  0  0  0  0
  1  2  1  0
  2  3  2  0
  3  4  1  0
  4  5  2  0
  5  6  1  0
  5  7  1  0
  7  8  2  0
  8  9  1  0
  9 10  1  0
 10 11  2  0
 11 12  1  0
 12 13  2  0
 13 14  1  0
 14 15  2  0
 15 16  1  0
 16 17  1  0
 17 18  2  0
 18 19  1  0
 19 20  2  0
 20 21  1  0
 21 22  2  0
 16 23  2  0
 23 24  1  0
 24 25  2  0
  8  2  1  0
 25 10  1  0
 25 14  1  0
 22 17  1  0
M  END
>  <Compound_ID>  (756) 
CHEMBL581096

>  <Molecule Name>  (756) 
GW440139A

>  <Molecular Weight>  (756) 
363.85

>  <AlogP>  (756) 
5.05

>  <Smiles>  (756) 
Cc1ccc(O)cc1Nc1ccnc2cc(-c3ccccn3)ccc12

>  <Standard Type>  (756) 
Inhibition

>  <Standard Relation>  (756) 
'='

>  <Standard Units>  (756) 
%

>  <Standard Value>  (756) 
4.0

>  <Assay ChEMBL ID>  (756) 
CHEMBL1962184

>  <Assay Description>  (756) 
GSK_PKIS: TRKA mean inhibition at 0.1 uM [Nanosyn]

>  <BAO Format ID>  (756) 
BAO_0000357

>  <BAO Label>  (756) 
single protein format

>  <Assay Organism>  (756) 
None

>  <Target ChEMBL ID>  (756) 
CHEMBL2815

>  <Target Name>  (756) 
Nerve growth factor receptor Trk-A

>  <Target Organism>  (756) 
Homo sapiens

>  <Target Type>  (756) 
SINGLE PROTEIN

>  <Document ChEMBL ID>  (756) 
CHEMBL1961873

>  <Source Description>  (756) 
GSK Published Kinase Inhibitor Set

>  <Document Journal>  (756) 
nan

>  <Document Year>  (756) 
nan

>  <Active>  (756) 
0.0

>  <bits>  (756) 
<rdkit.DataStructs.cDataStructs.ExplicitBitVect object at 0x00000159F7931620>

>  <Group>  (756) 
G2

$$$$

     RDKit          2D

 30 34  0  0  0  0  0  0  0  0999 V2000
    2.3907    1.0037    0.0000 C   0  0  0  0  0  0  0  0  0  0  0  0
    1.2760    0.0000    0.0000 C   0  0  0  0  0  0  0  0  0  0  0  0
    2.3907   -1.0037    0.0000 C   0  0  0  0  0  0  0  0  0  0  0  0
    0.3943    1.2135    0.0000 O   0  0  0  0  0  0  0  0  0  0  0  0
   -1.0323    0.7500    0.0000 C   0  0  0  0  0  0  0  0  0  0  0  0
   -1.0323   -0.7500    0.0000 C   0  0  0  0  0  0  0  0  0  0  0  0
   -2.1470   -1.7537    0.0000 C   0  0  0  0  0  0  0  0  0  0  0  0
   -3.5736   -1.2902    0.0000 N   0  0  0  0  0  0  0  0  0  0  0  0
   -4.6883   -2.2939    0.0000 C   0  0  0  0  0  0  0  0  0  0  0  0
   -4.5315   -3.7856    0.0000 N   0  0  0  0  0  0  0  0  0  0  0  0
   -5.9018   -4.3958    0.0000 N   0  0  0  0  0  0  0  0  0  0  0  0
   -6.9055   -3.2810    0.0000 C   0  0  0  0  0  0  0  0  0  0  0  0
   -8.4055   -3.2810    0.0000 C   0  0  0  0  0  0  0  0  0  0  0  0
   -9.1555   -4.5801    0.0000 Cl  0  0  0  0  0  0  0  0  0  0  0  0
   -9.1555   -1.9820    0.0000 C   0  0  0  0  0  0  0  0  0  0  0  0
   -8.4055   -0.6830    0.0000 C   0  0  0  0  0  0  0  0  0  0  0  0
   -6.9055   -0.6830    0.0000 C   0  0  0  0  0  0  0  0  0  0  0  0
   -6.1555   -1.9820    0.0000 C   0  0  0  0  0  0  0  0  0  0  0  0
   -1.8351   -3.2209    0.0000 N   0  0  0  0  0  0  0  0  0  0  0  0
   -0.4086   -3.6844    0.0000 C   0  0  0  0  0  0  0  0  0  0  0  0
   -0.0967   -5.1517    0.0000 C   0  0  0  0  0  0  0  0  0  0  0  0
    1.2736   -5.7618    0.0000 C   0  0  0  0  0  0  0  0  0  0  0  0
    1.1168   -7.2536    0.0000 N   0  0  0  0  0  0  0  0  0  0  0  0
   -0.3504   -7.5654    0.0000 N   0  0  0  0  0  0  0  0  0  0  0  0
   -1.1004   -6.2664    0.0000 C   0  0  0  0  0  0  0  0  0  0  0  0
   -2.5922   -6.1096    0.0000 C   0  0  0  0  0  0  0  0  0  0  0  0
   -3.4738   -7.3231    0.0000 F   0  0  0  0  0  0  0  0  0  0  0  0
   -3.2023   -4.7393    0.0000 F   0  0  0  0  0  0  0  0  0  0  0  0
    0.7062   -2.6807    0.0000 N   0  0  0  0  0  0  0  0  0  0  0  0
    0.3943   -1.2135    0.0000 C   0  0  0  0  0  0  0  0  0  0  0  0
  1  2  1  0
  2  3  1  0
  2  4  1  0
  4  5  1  0
  5  6  1  0
  6  7  2  0
  7  8  1  0
  8  9  1  0
  9 10  2  0
 10 11  1  0
 11 12  1  0
 12 13  2  0
 13 14  1  0
 13 15  1  0
 15 16  2  0
 16 17  1  0
 17 18  2  0
  7 19  1  0
 19 20  2  0
 20 21  1  0
 21 22  1  0
 22 23  2  0
 23 24  1  0
 24 25  1  0
 25 26  1  0
 26 27  1  0
 26 28  1  0
 20 29  1  0
 29 30  2  0
 30  2  1  0
 30  6  1  0
 18  9  1  0
 25 21  2  0
 18 12  1  0
M  END
>  <Compound_ID>  (757) 
CHEMBL3758739

>  <Molecule Name>  (757) 
nan

>  <Molecular Weight>  (757) 
431.83

>  <AlogP>  (757) 
4.84

>  <Smiles>  (757) 
CC1(C)OCc2c(Nc3n[nH]c4c(Cl)cccc34)nc(-c3cn[nH]c3C(F)F)nc21

>  <Standard Type>  (757) 
Inhibition

>  <Standard Relation>  (757) 
'='

>  <Standard Units>  (757) 
%

>  <Standard Value>  (757) 
15.3

>  <Assay ChEMBL ID>  (757) 
CHEMBL3761492

>  <Assay Description>  (757) 
Inhibition of TRKA (unknown origin) at 1000 nM

>  <BAO Format ID>  (757) 
BAO_0000357

>  <BAO Label>  (757) 
single protein format

>  <Assay Organism>  (757) 
Homo sapiens

>  <Target ChEMBL ID>  (757) 
CHEMBL2815

>  <Target Name>  (757) 
Nerve growth factor receptor Trk-A

>  <Target Organism>  (757) 
Homo sapiens

>  <Target Type>  (757) 
SINGLE PROTEIN

>  <Document ChEMBL ID>  (757) 
CHEMBL3758169

>  <Source Description>  (757) 
Scientific Literature

>  <Document Journal>  (757) 
Bioorg Med Chem Lett

>  <Document Year>  (757) 
2016.0

>  <Active>  (757) 
0.0

>  <bits>  (757) 
<rdkit.DataStructs.cDataStructs.ExplicitBitVect object at 0x00000159F79315B0>

>  <Group>  (757) 
G2

$$$$

     RDKit          2D

 27 30  0  0  0  0  0  0  0  0999 V2000
   -0.0000   -5.1073    0.0000 O   0  0  0  0  0  0  0  0  0  0  0  0
   -0.0000   -3.6073    0.0000 C   0  0  0  0  0  0  0  0  0  0  0  0
    1.2135   -2.7256    0.0000 N   0  0  0  0  0  0  0  0  0  0  0  0
    0.7500   -1.2990    0.0000 C   0  0  0  0  0  0  0  0  0  0  0  0
    1.5000    0.0000    0.0000 C   0  0  0  0  0  0  0  0  0  0  0  0
    0.7500    1.2990    0.0000 C   0  0  0  0  0  0  0  0  0  0  0  0
   -0.7500    1.2990    0.0000 C   0  0  0  0  0  0  0  0  0  0  0  0
   -1.5000    2.5981    0.0000 C   0  0  0  0  0  0  0  0  0  0  0  0
   -3.0000    2.5981    0.0000 O   0  0  0  0  0  0  0  0  0  0  0  0
   -0.7500    3.8971    0.0000 C   0  0  0  0  0  0  0  0  0  0  0  0
   -1.3601    5.2674    0.0000 C   0  0  0  0  0  0  0  0  0  0  0  0
   -0.2454    6.2711    0.0000 C   0  0  0  0  0  0  0  0  0  0  0  0
    1.0537    5.5211    0.0000 C   0  0  0  0  0  0  0  0  0  0  0  0
    0.7418    4.0539    0.0000 O   0  0  0  0  0  0  0  0  0  0  0  0
   -1.5000    0.0000    0.0000 C   0  0  0  0  0  0  0  0  0  0  0  0
   -0.7500   -1.2990    0.0000 C   0  0  0  0  0  0  0  0  0  0  0  0
   -1.2135   -2.7256    0.0000 C   0  0  0  0  0  0  0  0  0  0  0  0
   -2.6401   -3.1891    0.0000 C   0  0  0  0  0  0  0  0  0  0  0  0
   -2.9520   -4.6564    0.0000 C   0  0  0  0  0  0  0  0  0  0  0  0
   -4.3786   -5.1199    0.0000 C   0  0  0  0  0  0  0  0  0  0  0  0
   -4.6904   -6.5871    0.0000 C   0  0  0  0  0  0  0  0  0  0  0  0
   -6.1170   -7.0506    0.0000 Cl  0  0  0  0  0  0  0  0  0  0  0  0
   -3.5757   -7.5908    0.0000 C   0  0  0  0  0  0  0  0  0  0  0  0
   -3.8876   -9.0580    0.0000 O   0  0  0  0  0  0  0  0  0  0  0  0
   -2.1491   -7.1273    0.0000 C   0  0  0  0  0  0  0  0  0  0  0  0
   -1.0344   -8.1310    0.0000 Cl  0  0  0  0  0  0  0  0  0  0  0  0
   -1.8373   -5.6601    0.0000 C   0  0  0  0  0  0  0  0  0  0  0  0
  1  2  2  0
  2  3  1  0
  3  4  1  0
  4  5  2  0
  5  6  1  0
  6  7  2  0
  7  8  1  0
  8  9  2  0
  8 10  1  0
 10 11  2  0
 11 12  1  0
 12 13  2  0
 13 14  1  0
  7 15  1  0
 15 16  2  0
 16 17  1  0
 17 18  2  3
 18 19  1  0
 19 20  2  0
 20 21  1  0
 21 22  1  0
 21 23  2  0
 23 24  1  0
 23 25  1  0
 25 26  1  0
 25 27  2  0
 17  2  1  0
 27 19  1  0
 16  4  1  0
 14 10  1  0
M  END
>  <Compound_ID>  (758) 
CHEMBL1789963

>  <Molecule Name>  (758) 
GW406108X

>  <Molecular Weight>  (758) 
400.22

>  <AlogP>  (758) 
5.02

>  <Smiles>  (758) 
O=C1Nc2ccc(C(=O)c3ccco3)cc2C1=Cc1cc(Cl)c(O)c(Cl)c1

>  <Standard Type>  (758) 
Inhibition

>  <Standard Relation>  (758) 
'='

>  <Standard Units>  (758) 
%

>  <Standard Value>  (758) 
4.97

>  <Assay ChEMBL ID>  (758) 
CHEMBL1962184

>  <Assay Description>  (758) 
GSK_PKIS: TRKA mean inhibition at 0.1 uM [Nanosyn]

>  <BAO Format ID>  (758) 
BAO_0000357

>  <BAO Label>  (758) 
single protein format

>  <Assay Organism>  (758) 
None

>  <Target ChEMBL ID>  (758) 
CHEMBL2815

>  <Target Name>  (758) 
Nerve growth factor receptor Trk-A

>  <Target Organism>  (758) 
Homo sapiens

>  <Target Type>  (758) 
SINGLE PROTEIN

>  <Document ChEMBL ID>  (758) 
CHEMBL1961873

>  <Source Description>  (758) 
GSK Published Kinase Inhibitor Set

>  <Document Journal>  (758) 
nan

>  <Document Year>  (758) 
nan

>  <Active>  (758) 
0.0

>  <bits>  (758) 
<rdkit.DataStructs.cDataStructs.ExplicitBitVect object at 0x00000159F7931540>

>  <Group>  (758) 
G2

$$$$

     RDKit          2D

 19 21  0  0  0  0  0  0  0  0999 V2000
    3.7500   -1.2990    0.0000 C   0  0  0  0  0  0  0  0  0  0  0  0
    3.0000    0.0000    0.0000 C   0  0  0  0  0  0  0  0  0  0  0  0
    1.5000    0.0000    0.0000 C   0  0  0  0  0  0  0  0  0  0  0  0
    0.7500   -1.2990    0.0000 N   0  0  0  0  0  0  0  0  0  0  0  0
   -0.7500   -1.2990    0.0000 C   0  0  0  0  0  0  0  0  0  0  0  0
   -1.5000    0.0000    0.0000 C   0  0  0  0  0  0  0  0  0  0  0  0
   -0.7500    1.2990    0.0000 C   0  0  0  0  0  0  0  0  0  0  0  0
    0.7500    1.2990    0.0000 C   0  0  0  0  0  0  0  0  0  0  0  0
    1.2135    2.7256    0.0000 N   0  0  0  0  0  0  0  0  0  0  0  0
    0.0000    3.6073    0.0000 C   0  0  0  0  0  0  0  0  0  0  0  0
    0.0000    5.1073    0.0000 C   0  0  0  0  0  0  0  0  0  0  0  0
   -1.2135    5.9890    0.0000 N   0  0  0  0  0  0  0  0  0  0  0  0
   -0.7500    7.4156    0.0000 O   0  0  0  0  0  0  0  0  0  0  0  0
    0.7500    7.4156    0.0000 N   0  0  0  0  0  0  0  0  0  0  0  0
    1.2135    5.9890    0.0000 C   0  0  0  0  0  0  0  0  0  0  0  0
    2.6401    5.5255    0.0000 N   0  0  0  0  0  0  0  0  0  0  0  0
   -1.2135    2.7256    0.0000 N   0  0  0  0  0  0  0  0  0  0  0  0
   -2.6401    3.1891    0.0000 C   0  0  0  0  0  0  0  0  0  0  0  0
   -3.7548    2.1855    0.0000 C   0  0  0  0  0  0  0  0  0  0  0  0
  1  2  1  0
  2  3  1  0
  3  4  2  0
  4  5  1  0
  5  6  2  0
  6  7  1  0
  7  8  2  0
  8  9  1  0
  9 10  2  0
 10 11  1  0
 11 12  2  0
 12 13  1  0
 13 14  1  0
 14 15  2  0
 15 16  1  0
 10 17  1  0
 17 18  1  0
 18 19  1  0
  8  3  1  0
 15 11  1  0
 17  7  1  0
M  END
>  <Compound_ID>  (759) 
CHEMBL365072

>  <Molecule Name>  (759) 
nan

>  <Molecular Weight>  (759) 
258.29

>  <AlogP>  (759) 
1.65

>  <Smiles>  (759) 
CCc1nccc2c1nc(-c1nonc1N)n2CC

>  <Standard Type>  (759) 
Inhibition

>  <Standard Relation>  (759) 
'='

>  <Standard Units>  (759) 
%

>  <Standard Value>  (759) 
-26.52

>  <Assay ChEMBL ID>  (759) 
CHEMBL1962185

>  <Assay Description>  (759) 
GSK_PKIS: TRKA mean inhibition at 1 uM [Nanosyn]

>  <BAO Format ID>  (759) 
BAO_0000357

>  <BAO Label>  (759) 
single protein format

>  <Assay Organism>  (759) 
None

>  <Target ChEMBL ID>  (759) 
CHEMBL2815

>  <Target Name>  (759) 
Nerve growth factor receptor Trk-A

>  <Target Organism>  (759) 
Homo sapiens

>  <Target Type>  (759) 
SINGLE PROTEIN

>  <Document ChEMBL ID>  (759) 
CHEMBL1961873

>  <Source Description>  (759) 
GSK Published Kinase Inhibitor Set

>  <Document Journal>  (759) 
nan

>  <Document Year>  (759) 
nan

>  <Active>  (759) 
0.0

>  <bits>  (759) 
<rdkit.DataStructs.cDataStructs.ExplicitBitVect object at 0x00000159F7930D60>

>  <Group>  (759) 
G2

$$$$

     RDKit          2D

 30 33  0  0  0  0  0  0  0  0999 V2000
    1.3299    5.6152    0.0000 C   0  0  0  0  0  0  0  0  0  0  0  0
   -0.0967    5.1517    0.0000 O   0  0  0  0  0  0  0  0  0  0  0  0
   -0.4086    3.6844    0.0000 C   0  0  0  0  0  0  0  0  0  0  0  0
    0.7062    2.6807    0.0000 C   0  0  0  0  0  0  0  0  0  0  0  0
    0.3943    1.2135    0.0000 C   0  0  0  0  0  0  0  0  0  0  0  0
    1.2760    0.0000    0.0000 N   0  0  0  0  0  0  0  0  0  0  0  0
    0.3943   -1.2135    0.0000 C   0  0  0  0  0  0  0  0  0  0  0  0
   -1.0323   -0.7500    0.0000 N   0  0  0  0  0  0  0  0  0  0  0  0
   -2.2458   -1.6317    0.0000 C   0  0  0  0  0  0  0  0  0  0  0  0
   -2.2458   -3.1317    0.0000 C   0  0  0  0  0  0  0  0  0  0  0  0
   -3.6724   -3.5952    0.0000 C   0  0  0  0  0  0  0  0  0  0  0  0
   -4.1359   -5.0218    0.0000 O   0  0  0  0  0  0  0  0  0  0  0  0
   -5.6031   -5.3337    0.0000 C   0  0  0  0  0  0  0  0  0  0  0  0
   -6.0667   -6.7602    0.0000 C   0  0  0  0  0  0  0  0  0  0  0  0
   -7.5339   -7.0721    0.0000 C   0  0  0  0  0  0  0  0  0  0  0  0
   -7.9974   -8.4987    0.0000 C   0  0  0  0  0  0  0  0  0  0  0  0
   -6.9937   -9.6134    0.0000 C   0  0  0  0  0  0  0  0  0  0  0  0
   -5.5265   -9.3015    0.0000 C   0  0  0  0  0  0  0  0  0  0  0  0
   -5.0630   -7.8750    0.0000 C   0  0  0  0  0  0  0  0  0  0  0  0
   -3.5958   -7.5631    0.0000 Cl  0  0  0  0  0  0  0  0  0  0  0  0
   -4.5541   -2.3817    0.0000 C   0  0  0  0  0  0  0  0  0  0  0  0
   -6.0541   -2.3817    0.0000 C   0  0  0  0  0  0  0  0  0  0  0  0
   -6.8041   -1.0826    0.0000 N   0  0  0  0  0  0  0  0  0  0  0  0
   -6.8041   -3.6807    0.0000 O   0  0  0  0  0  0  0  0  0  0  0  0
   -3.6724   -1.1682    0.0000 S   0  0  0  0  0  0  0  0  0  0  0  0
   -1.0323    0.7500    0.0000 C   0  0  0  0  0  0  0  0  0  0  0  0
   -2.1470    1.7537    0.0000 C   0  0  0  0  0  0  0  0  0  0  0  0
   -1.8351    3.2209    0.0000 C   0  0  0  0  0  0  0  0  0  0  0  0
   -2.9499    4.2246    0.0000 O   0  0  0  0  0  0  0  0  0  0  0  0
   -4.3764    3.7611    0.0000 C   0  0  0  0  0  0  0  0  0  0  0  0
  1  2  1  0
  2  3  1  0
  3  4  2  0
  4  5  1  0
  5  6  1  0
  6  7  2  0
  7  8  1  0
  8  9  1  0
  9 10  2  0
 10 11  1  0
 11 12  1  0
 12 13  1  0
 13 14  1  0
 14 15  2  0
 15 16  1  0
 16 17  2  0
 17 18  1  0
 18 19  2  0
 19 20  1  0
 11 21  2  0
 21 22  1  0
 22 23  1  0
 22 24  2  0
 21 25  1  0
  8 26  1  0
 26 27  1  0
 27 28  2  0
 28 29  1  0
 29 30  1  0
 28  3  1  0
 26  5  2  0
 25  9  1  0
 19 14  1  0
M  END
>  <Compound_ID>  (760) 
CHEMBL514162

>  <Molecule Name>  (760) 
GW852849X

>  <Molecular Weight>  (760) 
443.91

>  <AlogP>  (760) 
4.44

>  <Smiles>  (760) 
COc1cc2ncn(-c3cc(OCc4ccccc4Cl)c(C(N)=O)s3)c2cc1OC

>  <Standard Type>  (760) 
Inhibition

>  <Standard Relation>  (760) 
'='

>  <Standard Units>  (760) 
%

>  <Standard Value>  (760) 
2.92

>  <Assay ChEMBL ID>  (760) 
CHEMBL1962185

>  <Assay Description>  (760) 
GSK_PKIS: TRKA mean inhibition at 1 uM [Nanosyn]

>  <BAO Format ID>  (760) 
BAO_0000357

>  <BAO Label>  (760) 
single protein format

>  <Assay Organism>  (760) 
None

>  <Target ChEMBL ID>  (760) 
CHEMBL2815

>  <Target Name>  (760) 
Nerve growth factor receptor Trk-A

>  <Target Organism>  (760) 
Homo sapiens

>  <Target Type>  (760) 
SINGLE PROTEIN

>  <Document ChEMBL ID>  (760) 
CHEMBL1961873

>  <Source Description>  (760) 
GSK Published Kinase Inhibitor Set

>  <Document Journal>  (760) 
nan

>  <Document Year>  (760) 
nan

>  <Active>  (760) 
0.0

>  <bits>  (760) 
<rdkit.DataStructs.cDataStructs.ExplicitBitVect object at 0x00000159F7930F20>

>  <Group>  (760) 
G2

$$$$

     RDKit          2D

 27 30  0  0  0  0  0  0  0  0999 V2000
    7.5000   -7.7942    0.0000 C   0  0  0  0  0  0  0  0  0  0  0  0
    8.2500   -6.4952    0.0000 O   0  0  0  0  0  0  0  0  0  0  0  0
    7.5000   -5.1962    0.0000 C   0  0  0  0  0  0  0  0  0  0  0  0
    6.0000   -5.1962    0.0000 C   0  0  0  0  0  0  0  0  0  0  0  0
    5.2500   -3.8971    0.0000 C   0  0  0  0  0  0  0  0  0  0  0  0
    3.7500   -3.8971    0.0000 C   0  0  0  0  0  0  0  0  0  0  0  0
    3.0000   -2.5981    0.0000 N   0  0  0  0  0  0  0  0  0  0  0  0
    1.5000   -2.5981    0.0000 N   0  0  0  0  0  0  0  0  0  0  0  0
    0.7500   -1.2990    0.0000 C   0  0  0  0  0  0  0  0  0  0  0  0
    1.5000    0.0000    0.0000 N   0  0  0  0  0  0  0  0  0  0  0  0
    0.7500    1.2990    0.0000 C   0  0  0  0  0  0  0  0  0  0  0  0
   -0.7500    1.2990    0.0000 N   0  0  0  0  0  0  0  0  0  0  0  0
   -1.5000    0.0000    0.0000 C   0  0  0  0  0  0  0  0  0  0  0  0
   -0.7500   -1.2990    0.0000 C   0  0  0  0  0  0  0  0  0  0  0  0
   -1.7537   -2.4138    0.0000 C   0  0  0  0  0  0  0  0  0  0  0  0
   -3.1240   -1.8037    0.0000 N   0  0  0  0  0  0  0  0  0  0  0  0
   -2.9672   -0.3119    0.0000 N   0  0  0  0  0  0  0  0  0  0  0  0
   -4.0819    0.6918    0.0000 C   0  0  0  0  0  0  0  0  0  0  0  0
   -3.7701    2.1590    0.0000 C   0  0  0  0  0  0  0  0  0  0  0  0
   -4.8848    3.1627    0.0000 C   0  0  0  0  0  0  0  0  0  0  0  0
   -6.3114    2.6992    0.0000 C   0  0  0  0  0  0  0  0  0  0  0  0
   -6.6232    1.2320    0.0000 C   0  0  0  0  0  0  0  0  0  0  0  0
   -5.5085    0.2283    0.0000 C   0  0  0  0  0  0  0  0  0  0  0  0
    6.0000   -2.5981    0.0000 C   0  0  0  0  0  0  0  0  0  0  0  0
    7.5000   -2.5981    0.0000 C   0  0  0  0  0  0  0  0  0  0  0  0
    8.2500   -3.8971    0.0000 C   0  0  0  0  0  0  0  0  0  0  0  0
    9.7500   -3.8971    0.0000 O   0  0  0  0  0  0  0  0  0  0  0  0
  1  2  1  0
  2  3  1  0
  3  4  2  0
  4  5  1  0
  5  6  1  0
  6  7  2  3
  7  8  1  0
  8  9  1  0
  9 10  2  0
 10 11  1  0
 11 12  2  0
 12 13  1  0
 13 14  2  0
 14 15  1  0
 15 16  2  0
 16 17  1  0
 17 18  1  0
 18 19  2  0
 19 20  1  0
 20 21  2  0
 21 22  1  0
 22 23  2  0
  5 24  2  0
 24 25  1  0
 25 26  2  0
 26 27  1  0
 26  3  1  0
 14  9  1  0
 23 18  1  0
 17 13  1  0
M  END
>  <Compound_ID>  (761) 
CHEMBL1789961

>  <Molecule Name>  (761) 
GW513184X

>  <Molecular Weight>  (761) 
360.38

>  <AlogP>  (761) 
2.98

>  <Smiles>  (761) 
COc1cc(C=NNc2ncnc3c2cnn3-c2ccccc2)ccc1O

>  <Standard Type>  (761) 
Inhibition

>  <Standard Relation>  (761) 
'='

>  <Standard Units>  (761) 
%

>  <Standard Value>  (761) 
14.3

>  <Assay ChEMBL ID>  (761) 
CHEMBL1962185

>  <Assay Description>  (761) 
GSK_PKIS: TRKA mean inhibition at 1 uM [Nanosyn]

>  <BAO Format ID>  (761) 
BAO_0000357

>  <BAO Label>  (761) 
single protein format

>  <Assay Organism>  (761) 
None

>  <Target ChEMBL ID>  (761) 
CHEMBL2815

>  <Target Name>  (761) 
Nerve growth factor receptor Trk-A

>  <Target Organism>  (761) 
Homo sapiens

>  <Target Type>  (761) 
SINGLE PROTEIN

>  <Document ChEMBL ID>  (761) 
CHEMBL1961873

>  <Source Description>  (761) 
GSK Published Kinase Inhibitor Set

>  <Document Journal>  (761) 
nan

>  <Document Year>  (761) 
nan

>  <Active>  (761) 
0.0

>  <bits>  (761) 
<rdkit.DataStructs.cDataStructs.ExplicitBitVect object at 0x00000159F7931150>

>  <Group>  (761) 
G2

$$$$

     RDKit          2D

 23 25  0  0  0  0  0  0  0  0999 V2000
    3.0000   -5.1962    0.0000 C   0  0  0  0  0  0  0  0  0  0  0  0
    1.5000   -5.1962    0.0000 O   0  0  0  0  0  0  0  0  0  0  0  0
    0.7500   -3.8971    0.0000 C   0  0  0  0  0  0  0  0  0  0  0  0
    1.5000   -2.5981    0.0000 C   0  0  0  0  0  0  0  0  0  0  0  0
    0.7500   -1.2990    0.0000 C   0  0  0  0  0  0  0  0  0  0  0  0
    1.5000    0.0000    0.0000 N   0  0  0  0  0  0  0  0  0  0  0  0
    0.7500    1.2990    0.0000 C   0  0  0  0  0  0  0  0  0  0  0  0
   -0.7500    1.2990    0.0000 N   0  0  0  0  0  0  0  0  0  0  0  0
   -1.5000    0.0000    0.0000 C   0  0  0  0  0  0  0  0  0  0  0  0
   -3.0000    0.0000    0.0000 N   0  0  0  0  0  0  0  0  0  0  0  0
   -3.7500    1.2990    0.0000 C   0  0  0  0  0  0  0  0  0  0  0  0
   -3.0000    2.5981    0.0000 C   0  0  0  0  0  0  0  0  0  0  0  0
   -3.7500    3.8971    0.0000 C   0  0  0  0  0  0  0  0  0  0  0  0
   -5.2500    3.8971    0.0000 C   0  0  0  0  0  0  0  0  0  0  0  0
   -6.0000    5.1962    0.0000 C   0  0  0  0  0  0  0  0  0  0  0  0
   -6.0000    2.5981    0.0000 C   0  0  0  0  0  0  0  0  0  0  0  0
   -7.5000    2.5981    0.0000 O   0  0  0  0  0  0  0  0  0  0  0  0
   -5.2500    1.2990    0.0000 C   0  0  0  0  0  0  0  0  0  0  0  0
   -0.7500   -1.2990    0.0000 C   0  0  0  0  0  0  0  0  0  0  0  0
   -1.5000   -2.5981    0.0000 C   0  0  0  0  0  0  0  0  0  0  0  0
   -0.7500   -3.8971    0.0000 C   0  0  0  0  0  0  0  0  0  0  0  0
   -1.5000   -5.1962    0.0000 O   0  0  0  0  0  0  0  0  0  0  0  0
   -3.0000   -5.1962    0.0000 C   0  0  0  0  0  0  0  0  0  0  0  0
  1  2  1  0
  2  3  1  0
  3  4  2  0
  4  5  1  0
  5  6  2  0
  6  7  1  0
  7  8  2  0
  8  9  1  0
  9 10  1  0
 10 11  1  0
 11 12  2  0
 12 13  1  0
 13 14  2  0
 14 15  1  0
 14 16  1  0
 16 17  1  0
 16 18  2  0
  9 19  2  0
 19 20  1  0
 20 21  2  0
 21 22  1  0
 22 23  1  0
 21  3  1  0
 19  5  1  0
 18 11  1  0
M  END
>  <Compound_ID>  (762) 
CHEMBL1909357

>  <Molecule Name>  (762) 
GW410563A

>  <Molecular Weight>  (762) 
347.8

>  <AlogP>  (762) 
3.4

>  <Smiles>  (762) 
COc1cc2ncnc(Nc3ccc(C)c(O)c3)c2cc1OC

>  <Standard Type>  (762) 
Inhibition

>  <Standard Relation>  (762) 
'='

>  <Standard Units>  (762) 
%

>  <Standard Value>  (762) 
2.17

>  <Assay ChEMBL ID>  (762) 
CHEMBL1962185

>  <Assay Description>  (762) 
GSK_PKIS: TRKA mean inhibition at 1 uM [Nanosyn]

>  <BAO Format ID>  (762) 
BAO_0000357

>  <BAO Label>  (762) 
single protein format

>  <Assay Organism>  (762) 
None

>  <Target ChEMBL ID>  (762) 
CHEMBL2815

>  <Target Name>  (762) 
Nerve growth factor receptor Trk-A

>  <Target Organism>  (762) 
Homo sapiens

>  <Target Type>  (762) 
SINGLE PROTEIN

>  <Document ChEMBL ID>  (762) 
CHEMBL1961873

>  <Source Description>  (762) 
GSK Published Kinase Inhibitor Set

>  <Document Journal>  (762) 
nan

>  <Document Year>  (762) 
nan

>  <Active>  (762) 
0.0

>  <bits>  (762) 
<rdkit.DataStructs.cDataStructs.ExplicitBitVect object at 0x00000159F7932030>

>  <Group>  (762) 
G2

$$$$

     RDKit          2D

 29 32  0  0  0  0  0  0  0  0999 V2000
    5.2500   -1.2990    0.0000 C   0  0  0  0  0  0  0  0  0  0  0  0
    3.7500   -1.2990    0.0000 C   0  0  0  0  0  0  0  0  0  0  0  0
    3.0000    0.0000    0.0000 O   0  0  0  0  0  0  0  0  0  0  0  0
    1.5000    0.0000    0.0000 C   0  0  0  0  0  0  0  0  0  0  0  0
    0.7500   -1.2990    0.0000 C   0  0  0  0  0  0  0  0  0  0  0  0
   -0.7500   -1.2990    0.0000 C   0  0  0  0  0  0  0  0  0  0  0  0
   -1.5000    0.0000    0.0000 C   0  0  0  0  0  0  0  0  0  0  0  0
   -2.9672    0.3119    0.0000 C   0  0  0  0  0  0  0  0  0  0  0  0
   -4.0819   -0.6918    0.0000 C   0  0  0  0  0  0  0  0  0  0  0  0
   -5.5085   -0.2283    0.0000 C   0  0  0  0  0  0  0  0  0  0  0  0
   -6.6232   -1.2320    0.0000 C   0  0  0  0  0  0  0  0  0  0  0  0
   -6.3114   -2.6992    0.0000 N   0  0  0  0  0  0  0  0  0  0  0  0
   -4.8848   -3.1627    0.0000 C   0  0  0  0  0  0  0  0  0  0  0  0
   -4.5729   -4.6300    0.0000 N   0  0  0  0  0  0  0  0  0  0  0  0
   -5.6876   -5.6337    0.0000 C   0  0  0  0  0  0  0  0  0  0  0  0
   -7.1142   -5.1701    0.0000 C   0  0  0  0  0  0  0  0  0  0  0  0
   -8.2289   -6.1738    0.0000 C   0  0  0  0  0  0  0  0  0  0  0  0
   -7.9171   -7.6411    0.0000 C   0  0  0  0  0  0  0  0  0  0  0  0
   -6.4905   -8.1046    0.0000 C   0  0  0  0  0  0  0  0  0  0  0  0
   -6.1786   -9.5718    0.0000 C   0  0  0  0  0  0  0  0  0  0  0  0
   -5.8668  -11.0390    0.0000 F   0  0  0  0  0  0  0  0  0  0  0  0
   -7.6458   -9.8837    0.0000 F   0  0  0  0  0  0  0  0  0  0  0  0
   -4.7114   -9.2599    0.0000 F   0  0  0  0  0  0  0  0  0  0  0  0
   -5.3758   -7.1009    0.0000 C   0  0  0  0  0  0  0  0  0  0  0  0
   -3.7701   -2.1590    0.0000 N   0  0  0  0  0  0  0  0  0  0  0  0
   -3.1240    1.8037    0.0000 C   0  0  0  0  0  0  0  0  0  0  0  0
   -1.7537    2.4138    0.0000 N   0  0  0  0  0  0  0  0  0  0  0  0
   -0.7500    1.2990    0.0000 N   0  0  0  0  0  0  0  0  0  0  0  0
    0.7500    1.2990    0.0000 N   0  0  0  0  0  0  0  0  0  0  0  0
  1  2  1  0
  2  3  1  0
  3  4  1  0
  4  5  1  0
  5  6  2  0
  6  7  1  0
  7  8  2  0
  8  9  1  0
  9 10  2  0
 10 11  1  0
 11 12  2  0
 12 13  1  0
 13 14  1  0
 14 15  1  0
 15 16  2  0
 16 17  1  0
 17 18  2  0
 18 19  1  0
 19 20  1  0
 20 21  1  0
 20 22  1  0
 20 23  1  0
 19 24  2  0
 13 25  2  0
  8 26  1  0
 26 27  2  0
 27 28  1  0
 28 29  1  0
 29  4  2  0
 28  7  1  0
 25  9  1  0
 24 15  1  0
M  END
>  <Compound_ID>  (763) 
CHEMBL183993

>  <Molecule Name>  (763) 
GW811761X

>  <Molecular Weight>  (763) 
400.36

>  <AlogP>  (763) 
4.35

>  <Smiles>  (763) 
CCOc1ccc2c(-c3ccnc(Nc4cccc(C(F)(F)F)c4)n3)cnn2n1

>  <Standard Type>  (763) 
Inhibition

>  <Standard Relation>  (763) 
'='

>  <Standard Units>  (763) 
%

>  <Standard Value>  (763) 
0.72

>  <Assay ChEMBL ID>  (763) 
CHEMBL1962184

>  <Assay Description>  (763) 
GSK_PKIS: TRKA mean inhibition at 0.1 uM [Nanosyn]

>  <BAO Format ID>  (763) 
BAO_0000357

>  <BAO Label>  (763) 
single protein format

>  <Assay Organism>  (763) 
None

>  <Target ChEMBL ID>  (763) 
CHEMBL2815

>  <Target Name>  (763) 
Nerve growth factor receptor Trk-A

>  <Target Organism>  (763) 
Homo sapiens

>  <Target Type>  (763) 
SINGLE PROTEIN

>  <Document ChEMBL ID>  (763) 
CHEMBL1961873

>  <Source Description>  (763) 
GSK Published Kinase Inhibitor Set

>  <Document Journal>  (763) 
nan

>  <Document Year>  (763) 
nan

>  <Active>  (763) 
0.0

>  <bits>  (763) 
<rdkit.DataStructs.cDataStructs.ExplicitBitVect object at 0x00000159F7930BA0>

>  <Group>  (763) 
G2

$$$$

     RDKit          2D

 39 43  0  0  0  0  0  0  0  0999 V2000
   -8.2322   -0.7949    0.0000 C   0  0  0  0  0  0  0  0  0  0  0  0
   -6.8056   -1.2584    0.0000 C   0  0  0  0  0  0  0  0  0  0  0  0
   -6.4937   -2.7256    0.0000 O   0  0  0  0  0  0  0  0  0  0  0  0
   -5.0672   -3.1891    0.0000 C   0  0  0  0  0  0  0  0  0  0  0  0
   -3.8536   -2.3075    0.0000 C   0  0  0  0  0  0  0  0  0  0  0  0
   -2.6401   -3.1891    0.0000 C   0  0  0  0  0  0  0  0  0  0  0  0
   -1.2135   -2.7256    0.0000 N   0  0  0  0  0  0  0  0  0  0  0  0
   -0.0000   -3.6073    0.0000 C   0  0  0  0  0  0  0  0  0  0  0  0
    1.2135   -2.7256    0.0000 N   0  0  0  0  0  0  0  0  0  0  0  0
    0.7500   -1.2990    0.0000 C   0  0  0  0  0  0  0  0  0  0  0  0
    1.5000    0.0000    0.0000 C   0  0  0  0  0  0  0  0  0  0  0  0
    0.7500    1.2990    0.0000 C   0  0  0  0  0  0  0  0  0  0  0  0
   -0.7500    1.2990    0.0000 C   0  0  0  0  0  0  0  0  0  0  0  0
   -1.5000    2.5981    0.0000 O   0  0  0  0  0  0  0  0  0  0  0  0
   -0.7500    3.8971    0.0000 C   0  0  0  0  0  0  0  0  0  0  0  0
   -1.5000    5.1962    0.0000 C   0  0  0  0  0  0  0  0  0  0  0  0
   -0.7500    6.4952    0.0000 C   0  0  0  0  0  0  0  0  0  0  0  0
   -1.5000    7.7942    0.0000 C   0  0  0  0  0  0  0  0  0  0  0  0
   -3.0000    7.7942    0.0000 N   0  0  0  0  0  0  0  0  0  0  0  0
   -3.7500    9.0933    0.0000 C   0  0  0  0  0  0  0  0  0  0  0  0
   -3.7500    6.4952    0.0000 C   0  0  0  0  0  0  0  0  0  0  0  0
   -3.0000    5.1962    0.0000 C   0  0  0  0  0  0  0  0  0  0  0  0
   -1.5000    0.0000    0.0000 C   0  0  0  0  0  0  0  0  0  0  0  0
   -0.7500   -1.2990    0.0000 C   0  0  0  0  0  0  0  0  0  0  0  0
   -3.1036   -4.6157    0.0000 S   0  0  0  0  0  0  0  0  0  0  0  0
   -4.6036   -4.6157    0.0000 C   0  0  0  0  0  0  0  0  0  0  0  0
   -5.4853   -5.8293    0.0000 C   0  0  0  0  0  0  0  0  0  0  0  0
   -4.8752   -7.1996    0.0000 N   0  0  0  0  0  0  0  0  0  0  0  0
   -6.9771   -5.6725    0.0000 O   0  0  0  0  0  0  0  0  0  0  0  0
   -5.6909   -0.2547    0.0000 C   0  0  0  0  0  0  0  0  0  0  0  0
   -4.2643   -0.7182    0.0000 C   0  0  0  0  0  0  0  0  0  0  0  0
   -3.1496    0.2855    0.0000 C   0  0  0  0  0  0  0  0  0  0  0  0
   -3.4615    1.7527    0.0000 C   0  0  0  0  0  0  0  0  0  0  0  0
   -4.8880    2.2162    0.0000 C   0  0  0  0  0  0  0  0  0  0  0  0
   -6.0028    1.2125    0.0000 C   0  0  0  0  0  0  0  0  0  0  0  0
   -7.4293    1.6760    0.0000 C   0  0  0  0  0  0  0  0  0  0  0  0
   -8.8559    2.1396    0.0000 F   0  0  0  0  0  0  0  0  0  0  0  0
   -6.9658    3.1026    0.0000 F   0  0  0  0  0  0  0  0  0  0  0  0
   -7.8929    0.2495    0.0000 F   0  0  0  0  0  0  0  0  0  0  0  0
  2  1  1  6
  2  3  1  0
  3  4  1  0
  4  5  1  0
  5  6  2  0
  6  7  1  0
  7  8  1  0
  8  9  2  0
  9 10  1  0
 10 11  2  0
 11 12  1  0
 12 13  2  0
 13 14  1  0
 14 15  1  0
 15 16  1  0
 16 17  1  0
 17 18  1  0
 18 19  1  0
 19 20  1  0
 19 21  1  0
 21 22  1  0
 13 23  1  0
 23 24  2  0
  6 25  1  0
 25 26  1  0
 26 27  1  0
 27 28  1  0
 27 29  2  0
  2 30  1  0
 30 31  2  0
 31 32  1  0
 32 33  2  0
 33 34  1  0
 34 35  2  0
 35 36  1  0
 36 37  1  0
 36 38  1  0
 36 39  1  0
 26  4  2  0
 35 30  1  0
 24  7  1  0
 24 10  1  0
 22 16  1  0
M  END
>  <Compound_ID>  (764) 
CHEMBL1794068

>  <Molecule Name>  (764) 
GSK-326090A

>  <Molecular Weight>  (764) 
558.63

>  <AlogP>  (764) 
6.07

>  <Smiles>  (764) 
C[C@@H](Oc1cc(-n2cnc3ccc(OCC4CCN(C)CC4)cc32)sc1C(N)=O)c1ccccc1C(F)(F)F

>  <Standard Type>  (764) 
Inhibition

>  <Standard Relation>  (764) 
'='

>  <Standard Units>  (764) 
%

>  <Standard Value>  (764) 
-0.37

>  <Assay ChEMBL ID>  (764) 
CHEMBL1962184

>  <Assay Description>  (764) 
GSK_PKIS: TRKA mean inhibition at 0.1 uM [Nanosyn]

>  <BAO Format ID>  (764) 
BAO_0000357

>  <BAO Label>  (764) 
single protein format

>  <Assay Organism>  (764) 
None

>  <Target ChEMBL ID>  (764) 
CHEMBL2815

>  <Target Name>  (764) 
Nerve growth factor receptor Trk-A

>  <Target Organism>  (764) 
Homo sapiens

>  <Target Type>  (764) 
SINGLE PROTEIN

>  <Document ChEMBL ID>  (764) 
CHEMBL1961873

>  <Source Description>  (764) 
GSK Published Kinase Inhibitor Set

>  <Document Journal>  (764) 
nan

>  <Document Year>  (764) 
nan

>  <Active>  (764) 
0.0

>  <bits>  (764) 
<rdkit.DataStructs.cDataStructs.ExplicitBitVect object at 0x00000159F7930AC0>

>  <Group>  (764) 
G2

$$$$

     RDKit          2D

 26 29  0  0  0  0  0  0  0  0999 V2000
   -0.2758   10.5570    0.0000 N   0  0  0  0  0  0  0  0  0  0  0  0
   -1.7024   10.0935    0.0000 C   0  0  0  0  0  0  0  0  0  0  0  0
   -2.8171   11.0972    0.0000 O   0  0  0  0  0  0  0  0  0  0  0  0
   -2.0143    8.6263    0.0000 C   0  0  0  0  0  0  0  0  0  0  0  0
   -0.8995    7.6226    0.0000 C   0  0  0  0  0  0  0  0  0  0  0  0
   -1.2114    6.1554    0.0000 C   0  0  0  0  0  0  0  0  0  0  0  0
   -2.6380    5.6918    0.0000 C   0  0  0  0  0  0  0  0  0  0  0  0
   -3.7527    6.6955    0.0000 C   0  0  0  0  0  0  0  0  0  0  0  0
   -5.1793    6.2320    0.0000 N   0  0  0  0  0  0  0  0  0  0  0  0
   -5.4912    4.7648    0.0000 C   0  0  0  0  0  0  0  0  0  0  0  0
   -6.9177    4.3013    0.0000 N   0  0  0  0  0  0  0  0  0  0  0  0
   -7.2296    2.8340    0.0000 C   0  0  0  0  0  0  0  0  0  0  0  0
   -6.1149    1.8303    0.0000 C   0  0  0  0  0  0  0  0  0  0  0  0
   -4.6883    2.2939    0.0000 C   0  0  0  0  0  0  0  0  0  0  0  0
   -3.5736    1.2902    0.0000 N   0  0  0  0  0  0  0  0  0  0  0  0
   -2.1470    1.7537    0.0000 C   0  0  0  0  0  0  0  0  0  0  0  0
   -1.8351    3.2209    0.0000 C   0  0  0  0  0  0  0  0  0  0  0  0
   -0.4086    3.6844    0.0000 C   0  0  0  0  0  0  0  0  0  0  0  0
    0.7062    2.6807    0.0000 C   0  0  0  0  0  0  0  0  0  0  0  0
    0.3943    1.2135    0.0000 C   0  0  0  0  0  0  0  0  0  0  0  0
    1.2760    0.0000    0.0000 N   0  0  0  0  0  0  0  0  0  0  0  0
    0.3943   -1.2135    0.0000 N   0  0  0  0  0  0  0  0  0  0  0  0
   -1.0323   -0.7500    0.0000 C   0  0  0  0  0  0  0  0  0  0  0  0
   -1.0323    0.7500    0.0000 C   0  0  0  0  0  0  0  0  0  0  0  0
   -4.3764    3.7611    0.0000 N   0  0  0  0  0  0  0  0  0  0  0  0
   -3.4408    8.1628    0.0000 C   0  0  0  0  0  0  0  0  0  0  0  0
  1  2  1  0
  2  3  2  0
  2  4  1  0
  4  5  2  0
  5  6  1  0
  6  7  2  0
  7  8  1  0
  8  9  1  0
  9 10  1  0
 10 11  2  0
 11 12  1  0
 12 13  2  0
 13 14  1  0
 14 15  1  0
 15 16  1  0
 16 17  2  0
 17 18  1  0
 18 19  2  0
 19 20  1  0
 20 21  1  0
 21 22  1  0
 22 23  2  0
 23 24  1  0
 14 25  2  0
  8 26  2  0
 26  4  1  0
 25 10  1  0
 24 16  1  0
 24 20  2  0
M  END
>  <Compound_ID>  (765) 
CHEMBL251549

>  <Molecule Name>  (765) 
GW782612X

>  <Molecular Weight>  (765) 
345.37

>  <AlogP>  (765) 
2.94

>  <Smiles>  (765) 
NC(=O)c1cccc(Nc2nccc(Nc3cccc4[nH]ncc34)n2)c1

>  <Standard Type>  (765) 
Inhibition

>  <Standard Relation>  (765) 
'='

>  <Standard Units>  (765) 
%

>  <Standard Value>  (765) 
0.29

>  <Assay ChEMBL ID>  (765) 
CHEMBL1962184

>  <Assay Description>  (765) 
GSK_PKIS: TRKA mean inhibition at 0.1 uM [Nanosyn]

>  <BAO Format ID>  (765) 
BAO_0000357

>  <BAO Label>  (765) 
single protein format

>  <Assay Organism>  (765) 
None

>  <Target ChEMBL ID>  (765) 
CHEMBL2815

>  <Target Name>  (765) 
Nerve growth factor receptor Trk-A

>  <Target Organism>  (765) 
Homo sapiens

>  <Target Type>  (765) 
SINGLE PROTEIN

>  <Document ChEMBL ID>  (765) 
CHEMBL1961873

>  <Source Description>  (765) 
GSK Published Kinase Inhibitor Set

>  <Document Journal>  (765) 
nan

>  <Document Year>  (765) 
nan

>  <Active>  (765) 
0.0

>  <bits>  (765) 
<rdkit.DataStructs.cDataStructs.ExplicitBitVect object at 0x00000159F79323B0>

>  <Group>  (765) 
G2

$$$$

     RDKit          2D

 33 37  0  0  0  0  0  0  0  0999 V2000
    3.0000    0.0000    0.0000 C   0  0  0  0  0  0  0  0  0  0  0  0
    1.5000    0.0000    0.0000 C   0  0  0  0  0  0  0  0  0  0  0  0
    0.7500   -1.2990    0.0000 C   0  0  0  0  0  0  0  0  0  0  0  0
   -0.7500   -1.2990    0.0000 C   0  0  0  0  0  0  0  0  0  0  0  0
   -1.5000    0.0000    0.0000 C   0  0  0  0  0  0  0  0  0  0  0  0
   -2.9672    0.3119    0.0000 C   0  0  0  0  0  0  0  0  0  0  0  0
   -4.0819   -0.6918    0.0000 C   0  0  0  0  0  0  0  0  0  0  0  0
   -5.5085   -0.2283    0.0000 C   0  0  0  0  0  0  0  0  0  0  0  0
   -6.6232   -1.2320    0.0000 C   0  0  0  0  0  0  0  0  0  0  0  0
   -6.3114   -2.6992    0.0000 N   0  0  0  0  0  0  0  0  0  0  0  0
   -4.8848   -3.1627    0.0000 C   0  0  0  0  0  0  0  0  0  0  0  0
   -4.5729   -4.6300    0.0000 N   0  0  0  0  0  0  0  0  0  0  0  0
   -5.6876   -5.6337    0.0000 C   0  0  0  0  0  0  0  0  0  0  0  0
   -7.1142   -5.1701    0.0000 C   0  0  0  0  0  0  0  0  0  0  0  0
   -8.2289   -6.1738    0.0000 C   0  0  0  0  0  0  0  0  0  0  0  0
   -7.9171   -7.6411    0.0000 C   0  0  0  0  0  0  0  0  0  0  0  0
   -6.4905   -8.1046    0.0000 C   0  0  0  0  0  0  0  0  0  0  0  0
   -6.1786   -9.5718    0.0000 C   0  0  0  0  0  0  0  0  0  0  0  0
   -5.8668  -11.0390    0.0000 F   0  0  0  0  0  0  0  0  0  0  0  0
   -7.6458   -9.8837    0.0000 F   0  0  0  0  0  0  0  0  0  0  0  0
   -4.7114   -9.2599    0.0000 F   0  0  0  0  0  0  0  0  0  0  0  0
   -5.3758   -7.1009    0.0000 C   0  0  0  0  0  0  0  0  0  0  0  0
   -3.7701   -2.1590    0.0000 N   0  0  0  0  0  0  0  0  0  0  0  0
   -3.1240    1.8037    0.0000 C   0  0  0  0  0  0  0  0  0  0  0  0
   -4.4231    2.5537    0.0000 C   0  0  0  0  0  0  0  0  0  0  0  0
   -4.4231    4.0537    0.0000 C   0  0  0  0  0  0  0  0  0  0  0  0
   -5.7221    4.8037    0.0000 C   0  0  0  0  0  0  0  0  0  0  0  0
   -7.0211    4.0537    0.0000 C   0  0  0  0  0  0  0  0  0  0  0  0
   -7.0211    2.5537    0.0000 C   0  0  0  0  0  0  0  0  0  0  0  0
   -5.7221    1.8037    0.0000 C   0  0  0  0  0  0  0  0  0  0  0  0
   -1.7537    2.4138    0.0000 N   0  0  0  0  0  0  0  0  0  0  0  0
   -0.7500    1.2990    0.0000 N   0  0  0  0  0  0  0  0  0  0  0  0
    0.7500    1.2990    0.0000 N   0  0  0  0  0  0  0  0  0  0  0  0
  1  2  1  0
  2  3  1  0
  3  4  2  0
  4  5  1  0
  5  6  2  0
  6  7  1  0
  7  8  2  0
  8  9  1  0
  9 10  2  0
 10 11  1  0
 11 12  1  0
 12 13  1  0
 13 14  2  0
 14 15  1  0
 15 16  2  0
 16 17  1  0
 17 18  1  0
 18 19  1  0
 18 20  1  0
 18 21  1  0
 17 22  2  0
 11 23  2  0
  6 24  1  0
 24 25  1  0
 25 26  2  0
 26 27  1  0
 27 28  2  0
 28 29  1  0
 29 30  2  0
 24 31  2  0
 31 32  1  0
 32 33  1  0
 33  2  2  0
 32  5  1  0
 23  7  1  0
 30 25  1  0
 22 13  1  0
M  END
>  <Compound_ID>  (766) 
CHEMBL434729

>  <Molecule Name>  (766) 
GW829906X

>  <Molecular Weight>  (766) 
446.44

>  <AlogP>  (766) 
5.92

>  <Smiles>  (766) 
Cc1ccc2c(-c3ccnc(Nc4cccc(C(F)(F)F)c4)n3)c(-c3ccccc3)nn2n1

>  <Standard Type>  (766) 
Inhibition

>  <Standard Relation>  (766) 
'='

>  <Standard Units>  (766) 
%

>  <Standard Value>  (766) 
7.09

>  <Assay ChEMBL ID>  (766) 
CHEMBL1962185

>  <Assay Description>  (766) 
GSK_PKIS: TRKA mean inhibition at 1 uM [Nanosyn]

>  <BAO Format ID>  (766) 
BAO_0000357

>  <BAO Label>  (766) 
single protein format

>  <Assay Organism>  (766) 
None

>  <Target ChEMBL ID>  (766) 
CHEMBL2815

>  <Target Name>  (766) 
Nerve growth factor receptor Trk-A

>  <Target Organism>  (766) 
Homo sapiens

>  <Target Type>  (766) 
SINGLE PROTEIN

>  <Document ChEMBL ID>  (766) 
CHEMBL1961873

>  <Source Description>  (766) 
GSK Published Kinase Inhibitor Set

>  <Document Journal>  (766) 
nan

>  <Document Year>  (766) 
nan

>  <Active>  (766) 
0.0

>  <bits>  (766) 
<rdkit.DataStructs.cDataStructs.ExplicitBitVect object at 0x00000159F7931A80>

>  <Group>  (766) 
G2

$$$$

     RDKit          2D

 21 23  0  0  0  0  0  0  0  0999 V2000
   -0.0000   -5.1073    0.0000 O   0  0  0  0  0  0  0  0  0  0  0  0
   -0.0000   -3.6073    0.0000 C   0  0  0  0  0  0  0  0  0  0  0  0
    1.2135   -2.7256    0.0000 N   0  0  0  0  0  0  0  0  0  0  0  0
    0.7500   -1.2990    0.0000 C   0  0  0  0  0  0  0  0  0  0  0  0
    1.5000    0.0000    0.0000 C   0  0  0  0  0  0  0  0  0  0  0  0
    0.7500    1.2990    0.0000 C   0  0  0  0  0  0  0  0  0  0  0  0
   -0.7500    1.2990    0.0000 C   0  0  0  0  0  0  0  0  0  0  0  0
   -1.5000    2.5981    0.0000 I   0  0  0  0  0  0  0  0  0  0  0  0
   -1.5000    0.0000    0.0000 C   0  0  0  0  0  0  0  0  0  0  0  0
   -0.7500   -1.2990    0.0000 C   0  0  0  0  0  0  0  0  0  0  0  0
   -1.2135   -2.7256    0.0000 C   0  0  0  0  0  0  0  0  0  0  0  0
   -2.6401   -3.1891    0.0000 C   0  0  0  0  0  0  0  0  0  0  0  0
   -2.9520   -4.6564    0.0000 C   0  0  0  0  0  0  0  0  0  0  0  0
   -4.3786   -5.1199    0.0000 C   0  0  0  0  0  0  0  0  0  0  0  0
   -4.6904   -6.5871    0.0000 C   0  0  0  0  0  0  0  0  0  0  0  0
   -6.1170   -7.0506    0.0000 Br  0  0  0  0  0  0  0  0  0  0  0  0
   -3.5757   -7.5908    0.0000 C   0  0  0  0  0  0  0  0  0  0  0  0
   -3.8876   -9.0580    0.0000 O   0  0  0  0  0  0  0  0  0  0  0  0
   -2.1491   -7.1273    0.0000 C   0  0  0  0  0  0  0  0  0  0  0  0
   -1.0344   -8.1310    0.0000 Br  0  0  0  0  0  0  0  0  0  0  0  0
   -1.8373   -5.6601    0.0000 C   0  0  0  0  0  0  0  0  0  0  0  0
  1  2  2  0
  2  3  1  0
  3  4  1  0
  4  5  2  0
  5  6  1  0
  6  7  2  0
  7  8  1  0
  7  9  1  0
  9 10  2  0
 10 11  1  0
 11 12  2  3
 12 13  1  0
 13 14  2  0
 14 15  1  0
 15 16  1  0
 15 17  2  0
 17 18  1  0
 17 19  1  0
 19 20  1  0
 19 21  2  0
 11  2  1  0
 21 13  1  0
 10  4  1  0
M  END
>  <Compound_ID>  (767) 
CHEMBL1880739

>  <Molecule Name>  (767) 
GW305074X

>  <Molecular Weight>  (767) 
520.95

>  <AlogP>  (767) 
5.01

>  <Smiles>  (767) 
O=C1Nc2ccc(I)cc2C1=Cc1cc(Br)c(O)c(Br)c1

>  <Standard Type>  (767) 
Inhibition

>  <Standard Relation>  (767) 
'='

>  <Standard Units>  (767) 
%

>  <Standard Value>  (767) 
7.89

>  <Assay ChEMBL ID>  (767) 
CHEMBL1962185

>  <Assay Description>  (767) 
GSK_PKIS: TRKA mean inhibition at 1 uM [Nanosyn]

>  <BAO Format ID>  (767) 
BAO_0000357

>  <BAO Label>  (767) 
single protein format

>  <Assay Organism>  (767) 
None

>  <Target ChEMBL ID>  (767) 
CHEMBL2815

>  <Target Name>  (767) 
Nerve growth factor receptor Trk-A

>  <Target Organism>  (767) 
Homo sapiens

>  <Target Type>  (767) 
SINGLE PROTEIN

>  <Document ChEMBL ID>  (767) 
CHEMBL1961873

>  <Source Description>  (767) 
GSK Published Kinase Inhibitor Set

>  <Document Journal>  (767) 
nan

>  <Document Year>  (767) 
nan

>  <Active>  (767) 
0.0

>  <bits>  (767) 
<rdkit.DataStructs.cDataStructs.ExplicitBitVect object at 0x00000159F7930B30>

>  <Group>  (767) 
G2

$$$$

     RDKit          2D

 29 32  0  0  0  0  0  0  0  0999 V2000
    3.0000    0.0000    0.0000 C   0  0  0  0  0  0  0  0  0  0  0  0
    1.5000    0.0000    0.0000 C   0  0  0  0  0  0  0  0  0  0  0  0
    0.7500   -1.2990    0.0000 C   0  0  0  0  0  0  0  0  0  0  0  0
   -0.7500   -1.2990    0.0000 C   0  0  0  0  0  0  0  0  0  0  0  0
   -1.5000    0.0000    0.0000 C   0  0  0  0  0  0  0  0  0  0  0  0
   -3.0000    0.0000    0.0000 C   0  0  0  0  0  0  0  0  0  0  0  0
   -3.7500   -1.2990    0.0000 O   0  0  0  0  0  0  0  0  0  0  0  0
   -3.7500    1.2990    0.0000 N   0  0  0  0  0  0  0  0  0  0  0  0
   -5.2500    1.2990    0.0000 C   0  0  0  0  0  0  0  0  0  0  0  0
   -6.0000    2.5981    0.0000 C   0  0  0  0  0  0  0  0  0  0  0  0
   -7.5000    2.5981    0.0000 C   0  0  0  0  0  0  0  0  0  0  0  0
   -8.2500    1.2990    0.0000 C   0  0  0  0  0  0  0  0  0  0  0  0
   -7.5000    0.0000    0.0000 C   0  0  0  0  0  0  0  0  0  0  0  0
   -6.0000    0.0000    0.0000 C   0  0  0  0  0  0  0  0  0  0  0  0
   -0.7500    1.2990    0.0000 C   0  0  0  0  0  0  0  0  0  0  0  0
    0.7500    1.2990    0.0000 C   0  0  0  0  0  0  0  0  0  0  0  0
    1.5000    2.5981    0.0000 C   0  0  0  0  0  0  0  0  0  0  0  0
    3.0000    2.5981    0.0000 C   0  0  0  0  0  0  0  0  0  0  0  0
    3.7500    3.8971    0.0000 C   0  0  0  0  0  0  0  0  0  0  0  0
    3.0000    5.1962    0.0000 C   0  0  0  0  0  0  0  0  0  0  0  0
    3.7500    6.4952    0.0000 C   0  0  0  0  0  0  0  0  0  0  0  0
    3.0000    7.7942    0.0000 O   0  0  0  0  0  0  0  0  0  0  0  0
    5.2500    6.4952    0.0000 N   0  0  0  0  0  0  0  0  0  0  0  0
    6.0000    7.7942    0.0000 C   0  0  0  0  0  0  0  0  0  0  0  0
    7.5000    7.7942    0.0000 C   0  0  0  0  0  0  0  0  0  0  0  0
    8.7990    8.5442    0.0000 C   0  0  0  0  0  0  0  0  0  0  0  0
    8.7990    7.0442    0.0000 C   0  0  0  0  0  0  0  0  0  0  0  0
    1.5000    5.1962    0.0000 C   0  0  0  0  0  0  0  0  0  0  0  0
    0.7500    3.8971    0.0000 C   0  0  0  0  0  0  0  0  0  0  0  0
  1  2  1  0
  2  3  2  0
  3  4  1  0
  4  5  2  0
  5  6  1  0
  6  7  2  0
  6  8  1  0
  8  9  1  0
  9 10  1  0
 10 11  1  0
 11 12  1  0
 12 13  1  0
 13 14  1  0
  5 15  1  0
 15 16  2  0
 16 17  1  0
 17 18  2  0
 18 19  1  0
 19 20  2  0
 20 21  1  0
 21 22  2  0
 21 23  1  0
 23 24  1  0
 24 25  1  0
 25 26  1  0
 26 27  1  0
 20 28  1  0
 28 29  2  0
 16  2  1  0
 29 17  1  0
 14  9  1  0
 27 25  1  0
M  END
>  <Compound_ID>  (768) 
CHEMBL477978

>  <Molecule Name>  (768) 
GW782907X

>  <Molecular Weight>  (768) 
390.53

>  <AlogP>  (768) 
4.86

>  <Smiles>  (768) 
Cc1ccc(C(=O)NC2CCCCC2)cc1-c1ccc(C(=O)NCC2CC2)cc1

>  <Standard Type>  (768) 
Inhibition

>  <Standard Relation>  (768) 
'='

>  <Standard Units>  (768) 
%

>  <Standard Value>  (768) 
2.3

>  <Assay ChEMBL ID>  (768) 
CHEMBL1962184

>  <Assay Description>  (768) 
GSK_PKIS: TRKA mean inhibition at 0.1 uM [Nanosyn]

>  <BAO Format ID>  (768) 
BAO_0000357

>  <BAO Label>  (768) 
single protein format

>  <Assay Organism>  (768) 
None

>  <Target ChEMBL ID>  (768) 
CHEMBL2815

>  <Target Name>  (768) 
Nerve growth factor receptor Trk-A

>  <Target Organism>  (768) 
Homo sapiens

>  <Target Type>  (768) 
SINGLE PROTEIN

>  <Document ChEMBL ID>  (768) 
CHEMBL1961873

>  <Source Description>  (768) 
GSK Published Kinase Inhibitor Set

>  <Document Journal>  (768) 
nan

>  <Document Year>  (768) 
nan

>  <Active>  (768) 
0.0

>  <bits>  (768) 
<rdkit.DataStructs.cDataStructs.ExplicitBitVect object at 0x00000159F7931BD0>

>  <Group>  (768) 
G2

$$$$

     RDKit          2D

 25 28  0  0  0  0  0  0  0  0999 V2000
   -8.6583   -6.5105    0.0000 C   0  0  0  0  0  0  0  0  0  0  0  0
   -7.2317   -6.0469    0.0000 N   0  0  0  0  0  0  0  0  0  0  0  0
   -6.9199   -4.5797    0.0000 C   0  0  0  0  0  0  0  0  0  0  0  0
   -5.4933   -4.1162    0.0000 C   0  0  0  0  0  0  0  0  0  0  0  0
   -4.3786   -5.1199    0.0000 C   0  0  0  0  0  0  0  0  0  0  0  0
   -2.9520   -4.6564    0.0000 C   0  0  0  0  0  0  0  0  0  0  0  0
   -1.8373   -5.6601    0.0000 O   0  0  0  0  0  0  0  0  0  0  0  0
   -2.6401   -3.1891    0.0000 N   0  0  0  0  0  0  0  0  0  0  0  0
   -1.2135   -2.7256    0.0000 C   0  0  0  0  0  0  0  0  0  0  0  0
   -0.0000   -3.6073    0.0000 N   0  0  0  0  0  0  0  0  0  0  0  0
    1.2135   -2.7256    0.0000 N   0  0  0  0  0  0  0  0  0  0  0  0
    0.7500   -1.2990    0.0000 C   0  0  0  0  0  0  0  0  0  0  0  0
    1.5000    0.0000    0.0000 N   0  0  0  0  0  0  0  0  0  0  0  0
    0.7500    1.2990    0.0000 N   0  0  0  0  0  0  0  0  0  0  0  0
   -0.7500    1.2990    0.0000 C   0  0  0  0  0  0  0  0  0  0  0  0
   -1.5000    2.5981    0.0000 C   0  0  0  0  0  0  0  0  0  0  0  0
   -0.7500    3.8971    0.0000 C   0  0  0  0  0  0  0  0  0  0  0  0
   -1.5000    5.1962    0.0000 C   0  0  0  0  0  0  0  0  0  0  0  0
   -3.0000    5.1962    0.0000 C   0  0  0  0  0  0  0  0  0  0  0  0
   -3.7500    3.8971    0.0000 C   0  0  0  0  0  0  0  0  0  0  0  0
   -3.0000    2.5981    0.0000 C   0  0  0  0  0  0  0  0  0  0  0  0
   -1.5000    0.0000    0.0000 C   0  0  0  0  0  0  0  0  0  0  0  0
   -0.7500   -1.2990    0.0000 C   0  0  0  0  0  0  0  0  0  0  0  0
   -4.6904   -6.5871    0.0000 C   0  0  0  0  0  0  0  0  0  0  0  0
   -6.1170   -7.0506    0.0000 C   0  0  0  0  0  0  0  0  0  0  0  0
  1  2  1  0
  2  3  1  0
  3  4  1  0
  4  5  1  0
  5  6  1  0
  6  7  2  0
  6  8  1  0
  8  9  1  0
  9 10  2  0
 10 11  1  0
 11 12  1  0
 12 13  2  0
 13 14  1  0
 14 15  2  0
 15 16  1  0
 16 17  2  0
 17 18  1  0
 18 19  2  0
 19 20  1  0
 20 21  2  0
 15 22  1  0
 22 23  2  0
  5 24  1  0
 24 25  1  0
 25  2  1  0
 23  9  1  0
 23 12  1  0
 21 16  1  0
M  END
>  <Compound_ID>  (769) 
CHEMBL1909344

>  <Molecule Name>  (769) 
nan

>  <Molecular Weight>  (769) 
372.86

>  <AlogP>  (769) 
2.3

>  <Smiles>  (769) 
CN1CCC(C(=O)Nc2n[nH]c3nnc(-c4ccccc4)cc23)CC1

>  <Standard Type>  (769) 
Inhibition

>  <Standard Relation>  (769) 
'='

>  <Standard Units>  (769) 
%

>  <Standard Value>  (769) 
1.65

>  <Assay ChEMBL ID>  (769) 
CHEMBL1962185

>  <Assay Description>  (769) 
GSK_PKIS: TRKA mean inhibition at 1 uM [Nanosyn]

>  <BAO Format ID>  (769) 
BAO_0000357

>  <BAO Label>  (769) 
single protein format

>  <Assay Organism>  (769) 
None

>  <Target ChEMBL ID>  (769) 
CHEMBL2815

>  <Target Name>  (769) 
Nerve growth factor receptor Trk-A

>  <Target Organism>  (769) 
Homo sapiens

>  <Target Type>  (769) 
SINGLE PROTEIN

>  <Document ChEMBL ID>  (769) 
CHEMBL1961873

>  <Source Description>  (769) 
GSK Published Kinase Inhibitor Set

>  <Document Journal>  (769) 
nan

>  <Document Year>  (769) 
nan

>  <Active>  (769) 
0.0

>  <bits>  (769) 
<rdkit.DataStructs.cDataStructs.ExplicitBitVect object at 0x00000159F7933680>

>  <Group>  (769) 
G2

$$$$

     RDKit          2D

 35 38  0  0  0  0  0  0  0  0999 V2000
    3.7500   -1.2990    0.0000 C   0  0  0  0  0  0  0  0  0  0  0  0
    3.0000    0.0000    0.0000 O   0  0  0  0  0  0  0  0  0  0  0  0
    1.5000    0.0000    0.0000 C   0  0  0  0  0  0  0  0  0  0  0  0
    0.7500   -1.2990    0.0000 C   0  0  0  0  0  0  0  0  0  0  0  0
   -0.7500   -1.2990    0.0000 C   0  0  0  0  0  0  0  0  0  0  0  0
   -1.5000    0.0000    0.0000 C   0  0  0  0  0  0  0  0  0  0  0  0
   -3.0000    0.0000    0.0000 C   0  0  0  0  0  0  0  0  0  0  0  0
   -3.7500    1.2990    0.0000 C   0  0  0  0  0  0  0  0  0  0  0  0
   -5.2500    1.2990    0.0000 N   0  0  0  0  0  0  0  0  0  0  0  0
   -6.0000    0.0000    0.0000 C   0  0  0  0  0  0  0  0  0  0  0  0
   -5.2500   -1.2990    0.0000 C   0  0  0  0  0  0  0  0  0  0  0  0
   -6.0000   -2.5981    0.0000 O   0  0  0  0  0  0  0  0  0  0  0  0
   -7.5000   -2.5981    0.0000 C   0  0  0  0  0  0  0  0  0  0  0  0
   -8.2500   -1.2990    0.0000 C   0  0  0  0  0  0  0  0  0  0  0  0
   -9.7500   -1.2990    0.0000 C   0  0  0  0  0  0  0  0  0  0  0  0
  -10.5000   -2.5981    0.0000 C   0  0  0  0  0  0  0  0  0  0  0  0
   -9.7500   -3.8971    0.0000 C   0  0  0  0  0  0  0  0  0  0  0  0
  -10.5000   -5.1962    0.0000 N   0  0  0  0  0  0  0  0  0  0  0  0
  -12.0000   -5.1962    0.0000 C   0  0  0  0  0  0  0  0  0  0  0  0
  -12.7500   -3.8971    0.0000 O   0  0  0  0  0  0  0  0  0  0  0  0
  -12.7500   -6.4952    0.0000 N   0  0  0  0  0  0  0  0  0  0  0  0
  -14.2500   -6.4952    0.0000 C   0  0  0  0  0  0  0  0  0  0  0  0
  -15.1317   -7.7087    0.0000 C   0  0  0  0  0  0  0  0  0  0  0  0
  -16.5583   -7.2452    0.0000 C   0  0  0  0  0  0  0  0  0  0  0  0
  -17.7718   -8.1269    0.0000 C   0  0  0  0  0  0  0  0  0  0  0  0
  -18.6535   -6.9133    0.0000 C   0  0  0  0  0  0  0  0  0  0  0  0
  -16.8901   -9.3404    0.0000 C   0  0  0  0  0  0  0  0  0  0  0  0
  -18.9853   -9.0085    0.0000 C   0  0  0  0  0  0  0  0  0  0  0  0
  -16.5583   -5.7452    0.0000 N   0  0  0  0  0  0  0  0  0  0  0  0
  -15.1317   -5.2817    0.0000 N   0  0  0  0  0  0  0  0  0  0  0  0
  -14.6682   -3.8551    0.0000 C   0  0  0  0  0  0  0  0  0  0  0  0
   -8.2500   -3.8971    0.0000 C   0  0  0  0  0  0  0  0  0  0  0  0
   -3.7500   -1.2990    0.0000 N   0  0  0  0  0  0  0  0  0  0  0  0
   -0.7500    1.2990    0.0000 C   0  0  0  0  0  0  0  0  0  0  0  0
    0.7500    1.2990    0.0000 C   0  0  0  0  0  0  0  0  0  0  0  0
  1  2  1  0
  2  3  1  0
  3  4  2  0
  4  5  1  0
  5  6  2  0
  6  7  1  0
  7  8  2  0
  8  9  1  0
  9 10  2  0
 10 11  1  0
 11 12  1  0
 12 13  1  0
 13 14  2  0
 14 15  1  0
 15 16  2  0
 16 17  1  0
 17 18  1  0
 18 19  1  0
 19 20  2  0
 19 21  1  0
 21 22  1  0
 22 23  2  0
 23 24  1  0
 24 25  1  0
 25 26  1  0
 25 27  1  0
 25 28  1  0
 24 29  2  0
 29 30  1  0
 30 31  1  0
 17 32  2  0
 11 33  2  0
  6 34  1  0
 34 35  2  0
 35  3  1  0
 33  7  1  0
 32 13  1  0
 30 22  1  0
M  END
>  <Compound_ID>  (770) 
CHEMBL3596863

>  <Molecule Name>  (770) 
nan

>  <Molecular Weight>  (770) 
472.55

>  <AlogP>  (770) 
5.62

>  <Smiles>  (770) 
COc1ccc(-c2cncc(Oc3cccc(NC(=O)Nc4cc(C(C)(C)C)nn4C)c3)n2)cc1

>  <Standard Type>  (770) 
Inhibition

>  <Standard Relation>  (770) 
'='

>  <Standard Units>  (770) 
%

>  <Standard Value>  (770) 
15.5

>  <Assay ChEMBL ID>  (770) 
CHEMBL3598603

>  <Assay Description>  (770) 
Inhibition of human recombinant TrkA at 20 uM using ATP and 5FAM tagged TrkA peptide substrate incubated for 60 mins by microfluidics assay

>  <BAO Format ID>  (770) 
BAO_0000357

>  <BAO Label>  (770) 
single protein format

>  <Assay Organism>  (770) 
Homo sapiens

>  <Target ChEMBL ID>  (770) 
CHEMBL2815

>  <Target Name>  (770) 
Nerve growth factor receptor Trk-A

>  <Target Organism>  (770) 
Homo sapiens

>  <Target Type>  (770) 
SINGLE PROTEIN

>  <Document ChEMBL ID>  (770) 
CHEMBL3596123

>  <Source Description>  (770) 
Scientific Literature

>  <Document Journal>  (770) 
Medchemcomm

>  <Document Year>  (770) 
2014.0

>  <Active>  (770) 
0.0

>  <bits>  (770) 
<rdkit.DataStructs.cDataStructs.ExplicitBitVect object at 0x00000159F7933220>

>  <Group>  (770) 
G2

$$$$

     RDKit          2D

 31 34  0  0  0  0  0  0  0  0999 V2000
    1.3299    5.6152    0.0000 C   0  0  0  0  0  0  0  0  0  0  0  0
   -0.0967    5.1517    0.0000 O   0  0  0  0  0  0  0  0  0  0  0  0
   -0.4086    3.6844    0.0000 C   0  0  0  0  0  0  0  0  0  0  0  0
    0.7062    2.6807    0.0000 C   0  0  0  0  0  0  0  0  0  0  0  0
    0.3943    1.2135    0.0000 C   0  0  0  0  0  0  0  0  0  0  0  0
    1.2760    0.0000    0.0000 N   0  0  0  0  0  0  0  0  0  0  0  0
    0.3943   -1.2135    0.0000 C   0  0  0  0  0  0  0  0  0  0  0  0
   -1.0323   -0.7500    0.0000 N   0  0  0  0  0  0  0  0  0  0  0  0
   -2.2458   -1.6317    0.0000 C   0  0  0  0  0  0  0  0  0  0  0  0
   -2.2458   -3.1317    0.0000 C   0  0  0  0  0  0  0  0  0  0  0  0
   -3.6724   -3.5952    0.0000 C   0  0  0  0  0  0  0  0  0  0  0  0
   -4.1359   -5.0218    0.0000 O   0  0  0  0  0  0  0  0  0  0  0  0
   -3.1322   -6.1365    0.0000 C   0  0  0  0  0  0  0  0  0  0  0  0
   -3.5958   -7.5631    0.0000 C   0  0  0  0  0  0  0  0  0  0  0  0
   -1.6650   -5.8246    0.0000 C   0  0  0  0  0  0  0  0  0  0  0  0
   -1.2015   -4.3981    0.0000 C   0  0  0  0  0  0  0  0  0  0  0  0
    0.2657   -4.0862    0.0000 C   0  0  0  0  0  0  0  0  0  0  0  0
    1.2694   -5.2009    0.0000 C   0  0  0  0  0  0  0  0  0  0  0  0
    0.8059   -6.6275    0.0000 C   0  0  0  0  0  0  0  0  0  0  0  0
   -0.6613   -6.9394    0.0000 C   0  0  0  0  0  0  0  0  0  0  0  0
   -1.1248   -8.3659    0.0000 Cl  0  0  0  0  0  0  0  0  0  0  0  0
   -4.5541   -2.3817    0.0000 C   0  0  0  0  0  0  0  0  0  0  0  0
   -6.0541   -2.3817    0.0000 C   0  0  0  0  0  0  0  0  0  0  0  0
   -6.8041   -1.0826    0.0000 N   0  0  0  0  0  0  0  0  0  0  0  0
   -6.8041   -3.6807    0.0000 O   0  0  0  0  0  0  0  0  0  0  0  0
   -3.6724   -1.1682    0.0000 S   0  0  0  0  0  0  0  0  0  0  0  0
   -1.0323    0.7500    0.0000 C   0  0  0  0  0  0  0  0  0  0  0  0
   -2.1470    1.7537    0.0000 C   0  0  0  0  0  0  0  0  0  0  0  0
   -1.8351    3.2209    0.0000 C   0  0  0  0  0  0  0  0  0  0  0  0
   -2.9499    4.2246    0.0000 O   0  0  0  0  0  0  0  0  0  0  0  0
   -4.3764    3.7611    0.0000 C   0  0  0  0  0  0  0  0  0  0  0  0
  1  2  1  0
  2  3  1  0
  3  4  2  0
  4  5  1  0
  5  6  1  0
  6  7  2  0
  7  8  1  0
  8  9  1  0
  9 10  2  0
 10 11  1  0
 11 12  1  0
 12 13  1  0
 13 14  1  6
 13 15  1  0
 15 16  2  0
 16 17  1  0
 17 18  2  0
 18 19  1  0
 19 20  2  0
 20 21  1  0
 11 22  2  0
 22 23  1  0
 23 24  1  0
 23 25  2  0
 22 26  1  0
  8 27  1  0
 27 28  1  0
 28 29  2  0
 29 30  1  0
 30 31  1  0
 29  3  1  0
 27  5  2  0
 26  9  1  0
 20 15  1  0
M  END
>  <Compound_ID>  (771) 
CHEMBL521806

>  <Molecule Name>  (771) 
GSK-237700A

>  <Molecular Weight>  (771) 
457.94

>  <AlogP>  (771) 
5.0

>  <Smiles>  (771) 
COc1cc2ncn(-c3cc(O[C@@H](C)c4ccccc4Cl)c(C(N)=O)s3)c2cc1OC

>  <Standard Type>  (771) 
Inhibition

>  <Standard Relation>  (771) 
'='

>  <Standard Units>  (771) 
%

>  <Standard Value>  (771) 
1.91

>  <Assay ChEMBL ID>  (771) 
CHEMBL1962184

>  <Assay Description>  (771) 
GSK_PKIS: TRKA mean inhibition at 0.1 uM [Nanosyn]

>  <BAO Format ID>  (771) 
BAO_0000357

>  <BAO Label>  (771) 
single protein format

>  <Assay Organism>  (771) 
None

>  <Target ChEMBL ID>  (771) 
CHEMBL2815

>  <Target Name>  (771) 
Nerve growth factor receptor Trk-A

>  <Target Organism>  (771) 
Homo sapiens

>  <Target Type>  (771) 
SINGLE PROTEIN

>  <Document ChEMBL ID>  (771) 
CHEMBL1961873

>  <Source Description>  (771) 
GSK Published Kinase Inhibitor Set

>  <Document Journal>  (771) 
nan

>  <Document Year>  (771) 
nan

>  <Active>  (771) 
0.0

>  <bits>  (771) 
<rdkit.DataStructs.cDataStructs.ExplicitBitVect object at 0x00000159F7931380>

>  <Group>  (771) 
G2

$$$$

     RDKit          2D

 27 31  0  0  0  0  0  0  0  0999 V2000
    2.3907    1.0037    0.0000 C   0  0  0  0  0  0  0  0  0  0  0  0
    1.2760    0.0000    0.0000 C   0  0  0  0  0  0  0  0  0  0  0  0
    2.3907   -1.0037    0.0000 C   0  0  0  0  0  0  0  0  0  0  0  0
    0.3943    1.2135    0.0000 O   0  0  0  0  0  0  0  0  0  0  0  0
   -1.0323    0.7500    0.0000 C   0  0  0  0  0  0  0  0  0  0  0  0
   -1.0323   -0.7500    0.0000 C   0  0  0  0  0  0  0  0  0  0  0  0
   -2.1470   -1.7537    0.0000 C   0  0  0  0  0  0  0  0  0  0  0  0
   -3.5736   -1.2902    0.0000 N   0  0  0  0  0  0  0  0  0  0  0  0
   -4.6883   -2.2939    0.0000 C   0  0  0  0  0  0  0  0  0  0  0  0
   -4.5315   -3.7856    0.0000 N   0  0  0  0  0  0  0  0  0  0  0  0
   -5.9018   -4.3958    0.0000 N   0  0  0  0  0  0  0  0  0  0  0  0
   -6.9055   -3.2810    0.0000 C   0  0  0  0  0  0  0  0  0  0  0  0
   -8.4055   -3.2810    0.0000 C   0  0  0  0  0  0  0  0  0  0  0  0
   -9.1555   -4.5801    0.0000 Cl  0  0  0  0  0  0  0  0  0  0  0  0
   -9.1555   -1.9820    0.0000 C   0  0  0  0  0  0  0  0  0  0  0  0
   -8.4055   -0.6830    0.0000 C   0  0  0  0  0  0  0  0  0  0  0  0
   -6.9055   -0.6830    0.0000 C   0  0  0  0  0  0  0  0  0  0  0  0
   -6.1555   -1.9820    0.0000 C   0  0  0  0  0  0  0  0  0  0  0  0
   -1.8351   -3.2209    0.0000 N   0  0  0  0  0  0  0  0  0  0  0  0
   -0.4086   -3.6844    0.0000 C   0  0  0  0  0  0  0  0  0  0  0  0
   -0.0967   -5.1517    0.0000 C   0  0  0  0  0  0  0  0  0  0  0  0
    1.2736   -5.7618    0.0000 C   0  0  0  0  0  0  0  0  0  0  0  0
    1.1168   -7.2536    0.0000 N   0  0  0  0  0  0  0  0  0  0  0  0
   -0.3504   -7.5654    0.0000 N   0  0  0  0  0  0  0  0  0  0  0  0
   -1.1004   -6.2664    0.0000 C   0  0  0  0  0  0  0  0  0  0  0  0
    0.7062   -2.6807    0.0000 N   0  0  0  0  0  0  0  0  0  0  0  0
    0.3943   -1.2135    0.0000 C   0  0  0  0  0  0  0  0  0  0  0  0
  1  2  1  0
  2  3  1  0
  2  4  1  0
  4  5  1  0
  5  6  1  0
  6  7  2  0
  7  8  1  0
  8  9  1  0
  9 10  2  0
 10 11  1  0
 11 12  1  0
 12 13  2  0
 13 14  1  0
 13 15  1  0
 15 16  2  0
 16 17  1  0
 17 18  2  0
  7 19  1  0
 19 20  2  0
 20 21  1  0
 21 22  1  0
 22 23  2  0
 23 24  1  0
 24 25  1  0
 20 26  1  0
 26 27  2  0
 27  2  1  0
 27  6  1  0
 18  9  1  0
 25 21  2  0
 18 12  1  0
M  END
>  <Compound_ID>  (772) 
CHEMBL3758602

>  <Molecule Name>  (772) 
nan

>  <Molecular Weight>  (772) 
381.83

>  <AlogP>  (772) 
3.91

>  <Smiles>  (772) 
CC1(C)OCc2c(Nc3n[nH]c4c(Cl)cccc34)nc(-c3cn[nH]c3)nc21

>  <Standard Type>  (772) 
Inhibition

>  <Standard Relation>  (772) 
'='

>  <Standard Units>  (772) 
%

>  <Standard Value>  (772) 
12.6

>  <Assay ChEMBL ID>  (772) 
CHEMBL3761277

>  <Assay Description>  (772) 
Inhibition of TRKA (unknown origin) at 100 nM

>  <BAO Format ID>  (772) 
BAO_0000357

>  <BAO Label>  (772) 
single protein format

>  <Assay Organism>  (772) 
Homo sapiens

>  <Target ChEMBL ID>  (772) 
CHEMBL2815

>  <Target Name>  (772) 
Nerve growth factor receptor Trk-A

>  <Target Organism>  (772) 
Homo sapiens

>  <Target Type>  (772) 
SINGLE PROTEIN

>  <Document ChEMBL ID>  (772) 
CHEMBL3758169

>  <Source Description>  (772) 
Scientific Literature

>  <Document Journal>  (772) 
Bioorg Med Chem Lett

>  <Document Year>  (772) 
2016.0

>  <Active>  (772) 
0.0

>  <bits>  (772) 
<rdkit.DataStructs.cDataStructs.ExplicitBitVect object at 0x00000159F7930CF0>

>  <Group>  (772) 
G2

$$$$

     RDKit          2D

 24 26  0  0  0  0  0  0  0  0999 V2000
    3.0000    0.0000    0.0000 C   0  0  0  0  0  0  0  0  0  0  0  0
    1.5000    0.0000    0.0000 C   0  0  0  0  0  0  0  0  0  0  0  0
    0.7500   -1.2990    0.0000 C   0  0  0  0  0  0  0  0  0  0  0  0
   -0.7500   -1.2990    0.0000 C   0  0  0  0  0  0  0  0  0  0  0  0
   -1.5000   -2.5981    0.0000 Cl  0  0  0  0  0  0  0  0  0  0  0  0
   -1.5000    0.0000    0.0000 C   0  0  0  0  0  0  0  0  0  0  0  0
   -0.7500    1.2990    0.0000 C   0  0  0  0  0  0  0  0  0  0  0  0
    0.7500    1.2990    0.0000 C   0  0  0  0  0  0  0  0  0  0  0  0
    1.2135    2.7256    0.0000 N   0  0  0  0  0  0  0  0  0  0  0  0
    0.0000    3.6073    0.0000 C   0  0  0  0  0  0  0  0  0  0  0  0
    0.0000    5.1073    0.0000 O   0  0  0  0  0  0  0  0  0  0  0  0
   -1.2135    2.7256    0.0000 C   0  0  0  0  0  0  0  0  0  0  0  0
   -2.6401    3.1891    0.0000 N   0  0  0  0  0  0  0  0  0  0  0  0
   -2.9520    4.6564    0.0000 N   0  0  0  0  0  0  0  0  0  0  0  0
   -4.3786    5.1199    0.0000 C   0  0  0  0  0  0  0  0  0  0  0  0
   -4.6904    6.5871    0.0000 C   0  0  0  0  0  0  0  0  0  0  0  0
   -6.1170    7.0506    0.0000 C   0  0  0  0  0  0  0  0  0  0  0  0
   -7.2317    6.0469    0.0000 C   0  0  0  0  0  0  0  0  0  0  0  0
   -8.6583    6.5105    0.0000 S   0  0  0  0  0  0  0  0  0  0  0  0
  -10.0849    6.9740    0.0000 N   0  0  0  0  0  0  0  0  0  0  0  0
   -8.1948    7.9371    0.0000 O   0  0  0  0  0  0  0  0  0  0  0  0
   -9.1218    5.0839    0.0000 O   0  0  0  0  0  0  0  0  0  0  0  0
   -6.9199    4.5797    0.0000 C   0  0  0  0  0  0  0  0  0  0  0  0
   -5.4933    4.1162    0.0000 C   0  0  0  0  0  0  0  0  0  0  0  0
  1  2  1  0
  2  3  2  0
  3  4  1  0
  4  5  1  0
  4  6  2  0
  6  7  1  0
  7  8  2  0
  8  9  1  0
  9 10  1  0
 10 11  2  0
 10 12  1  0
 12 13  2  3
 13 14  1  0
 14 15  1  0
 15 16  2  0
 16 17  1  0
 17 18  2  0
 18 19  1  0
 19 20  1  0
 19 21  2  0
 19 22  2  0
 18 23  1  0
 23 24  2  0
  8  2  1  0
 24 15  1  0
 12  7  1  0
M  END
>  <Compound_ID>  (773) 
CHEMBL1909397

>  <Molecule Name>  (773) 
GW279320X

>  <Molecular Weight>  (773) 
364.81

>  <AlogP>  (773) 
2.06

>  <Smiles>  (773) 
Cc1cc(Cl)cc2c1NC(=O)C2=NNc1ccc(S(N)(=O)=O)cc1

>  <Standard Type>  (773) 
Inhibition

>  <Standard Relation>  (773) 
'='

>  <Standard Units>  (773) 
%

>  <Standard Value>  (773) 
-1.82

>  <Assay ChEMBL ID>  (773) 
CHEMBL1962184

>  <Assay Description>  (773) 
GSK_PKIS: TRKA mean inhibition at 0.1 uM [Nanosyn]

>  <BAO Format ID>  (773) 
BAO_0000357

>  <BAO Label>  (773) 
single protein format

>  <Assay Organism>  (773) 
None

>  <Target ChEMBL ID>  (773) 
CHEMBL2815

>  <Target Name>  (773) 
Nerve growth factor receptor Trk-A

>  <Target Organism>  (773) 
Homo sapiens

>  <Target Type>  (773) 
SINGLE PROTEIN

>  <Document ChEMBL ID>  (773) 
CHEMBL1961873

>  <Source Description>  (773) 
GSK Published Kinase Inhibitor Set

>  <Document Journal>  (773) 
nan

>  <Document Year>  (773) 
nan

>  <Active>  (773) 
0.0

>  <bits>  (773) 
<rdkit.DataStructs.cDataStructs.ExplicitBitVect object at 0x00000159F7930C10>

>  <Group>  (773) 
G2

$$$$

     RDKit          2D

 25 28  0  0  0  0  0  0  0  0999 V2000
    3.0000   -2.5981    0.0000 O   0  0  0  0  0  0  0  0  0  0  0  0
    1.5000   -2.5981    0.0000 C   0  0  0  0  0  0  0  0  0  0  0  0
    0.7500   -3.8971    0.0000 N   0  0  0  0  0  0  0  0  0  0  0  0
    1.5000   -5.1962    0.0000 C   0  0  0  0  0  0  0  0  0  0  0  0
    0.7500   -6.4952    0.0000 C   0  0  0  0  0  0  0  0  0  0  0  0
    0.7500   -7.9952    0.0000 C   0  0  0  0  0  0  0  0  0  0  0  0
   -0.5490   -7.2452    0.0000 C   0  0  0  0  0  0  0  0  0  0  0  0
    0.7500   -1.2990    0.0000 C   0  0  0  0  0  0  0  0  0  0  0  0
    1.5000    0.0000    0.0000 C   0  0  0  0  0  0  0  0  0  0  0  0
    0.7500    1.2990    0.0000 C   0  0  0  0  0  0  0  0  0  0  0  0
   -0.7500    1.2990    0.0000 C   0  0  0  0  0  0  0  0  0  0  0  0
   -1.5000    2.5981    0.0000 C   0  0  0  0  0  0  0  0  0  0  0  0
   -0.7500    3.8971    0.0000 C   0  0  0  0  0  0  0  0  0  0  0  0
   -1.5000    5.1962    0.0000 C   0  0  0  0  0  0  0  0  0  0  0  0
   -3.0000    5.1962    0.0000 C   0  0  0  0  0  0  0  0  0  0  0  0
   -3.7500    3.8971    0.0000 C   0  0  0  0  0  0  0  0  0  0  0  0
   -5.2500    3.8971    0.0000 C   0  0  0  0  0  0  0  0  0  0  0  0
   -6.0000    2.5981    0.0000 O   0  0  0  0  0  0  0  0  0  0  0  0
   -6.0000    5.1962    0.0000 N   0  0  0  0  0  0  0  0  0  0  0  0
   -7.5000    5.1962    0.0000 C   0  0  0  0  0  0  0  0  0  0  0  0
   -8.7990    4.4462    0.0000 C   0  0  0  0  0  0  0  0  0  0  0  0
   -8.7990    5.9462    0.0000 C   0  0  0  0  0  0  0  0  0  0  0  0
   -3.0000    2.5981    0.0000 C   0  0  0  0  0  0  0  0  0  0  0  0
   -1.5000    0.0000    0.0000 C   0  0  0  0  0  0  0  0  0  0  0  0
   -0.7500   -1.2990    0.0000 C   0  0  0  0  0  0  0  0  0  0  0  0
  1  2  2  0
  2  3  1  0
  3  4  1  0
  4  5  1  0
  5  6  1  0
  6  7  1  0
  2  8  1  0
  8  9  2  0
  9 10  1  0
 10 11  2  0
 11 12  1  0
 12 13  2  0
 13 14  1  0
 14 15  2  0
 15 16  1  0
 16 17  1  0
 17 18  2  0
 17 19  1  0
 19 20  1  0
 20 21  1  0
 21 22  1  0
 16 23  2  0
 11 24  1  0
 24 25  2  0
  7  5  1  0
 25  8  1  0
 23 12  1  0
 22 20  1  0
M  END
>  <Compound_ID>  (774) 
CHEMBL479038

>  <Molecule Name>  (774) 
GW806776X

>  <Molecular Weight>  (774) 
334.42

>  <AlogP>  (774) 
3.39

>  <Smiles>  (774) 
O=C(NCC1CC1)c1ccc(-c2cccc(C(=O)NC3CC3)c2)cc1

>  <Standard Type>  (774) 
Inhibition

>  <Standard Relation>  (774) 
'='

>  <Standard Units>  (774) 
%

>  <Standard Value>  (774) 
0.79

>  <Assay ChEMBL ID>  (774) 
CHEMBL1962185

>  <Assay Description>  (774) 
GSK_PKIS: TRKA mean inhibition at 1 uM [Nanosyn]

>  <BAO Format ID>  (774) 
BAO_0000357

>  <BAO Label>  (774) 
single protein format

>  <Assay Organism>  (774) 
None

>  <Target ChEMBL ID>  (774) 
CHEMBL2815

>  <Target Name>  (774) 
Nerve growth factor receptor Trk-A

>  <Target Organism>  (774) 
Homo sapiens

>  <Target Type>  (774) 
SINGLE PROTEIN

>  <Document ChEMBL ID>  (774) 
CHEMBL1961873

>  <Source Description>  (774) 
GSK Published Kinase Inhibitor Set

>  <Document Journal>  (774) 
nan

>  <Document Year>  (774) 
nan

>  <Active>  (774) 
0.0

>  <bits>  (774) 
<rdkit.DataStructs.cDataStructs.ExplicitBitVect object at 0x00000159F7930EB0>

>  <Group>  (774) 
G2

$$$$

     RDKit          2D

 32 34  0  0  0  0  0  0  0  0999 V2000
    3.0000    0.0000    0.0000 C   0  0  0  0  0  0  0  0  0  0  0  0
    1.5000    0.0000    0.0000 C   0  0  0  0  0  0  0  0  0  0  0  0
    0.7500   -1.2990    0.0000 C   0  0  0  0  0  0  0  0  0  0  0  0
   -0.7500   -1.2990    0.0000 C   0  0  0  0  0  0  0  0  0  0  0  0
   -1.5000    0.0000    0.0000 C   0  0  0  0  0  0  0  0  0  0  0  0
   -0.7500    1.2990    0.0000 C   0  0  0  0  0  0  0  0  0  0  0  0
   -1.5000    2.5981    0.0000 N   0  0  0  0  0  0  0  0  0  0  0  0
   -0.7500    3.8971    0.0000 C   0  0  0  0  0  0  0  0  0  0  0  0
    0.7500    3.8971    0.0000 C   0  0  0  0  0  0  0  0  0  0  0  0
    1.5000    5.1962    0.0000 C   0  0  0  0  0  0  0  0  0  0  0  0
    3.0000    5.1962    0.0000 N   0  0  0  0  0  0  0  0  0  0  0  0
    3.7500    3.8971    0.0000 C   0  0  0  0  0  0  0  0  0  0  0  0
    3.0000    2.5981    0.0000 C   0  0  0  0  0  0  0  0  0  0  0  0
    3.7500    1.2990    0.0000 C   0  0  0  0  0  0  0  0  0  0  0  0
    5.2500    1.2990    0.0000 C   0  0  0  0  0  0  0  0  0  0  0  0
    6.0000    2.5981    0.0000 C   0  0  0  0  0  0  0  0  0  0  0  0
    7.5000    2.5981    0.0000 C   0  0  0  0  0  0  0  0  0  0  0  0
    8.2500    3.8971    0.0000 O   0  0  0  0  0  0  0  0  0  0  0  0
    8.2500    1.2990    0.0000 N   0  0  0  0  0  0  0  0  0  0  0  0
    9.7500    1.2990    0.0000 C   0  0  0  0  0  0  0  0  0  0  0  0
   10.5000    2.5981    0.0000 C   0  0  0  0  0  0  0  0  0  0  0  0
   12.0000    2.5981    0.0000 C   0  0  0  0  0  0  0  0  0  0  0  0
    9.7500    3.8971    0.0000 O   0  0  0  0  0  0  0  0  0  0  0  0
    7.5000    0.0000    0.0000 C   0  0  0  0  0  0  0  0  0  0  0  0
    8.2500   -1.2990    0.0000 C   0  0  0  0  0  0  0  0  0  0  0  0
    9.7500   -1.2990    0.0000 C   0  0  0  0  0  0  0  0  0  0  0  0
    7.5000   -2.5981    0.0000 O   0  0  0  0  0  0  0  0  0  0  0  0
    5.2500    3.8971    0.0000 C   0  0  0  0  0  0  0  0  0  0  0  0
    0.7500    6.4952    0.0000 N   0  0  0  0  0  0  0  0  0  0  0  0
   -0.7500    6.4952    0.0000 C   0  0  0  0  0  0  0  0  0  0  0  0
   -1.5000    5.1962    0.0000 N   0  0  0  0  0  0  0  0  0  0  0  0
    0.7500    1.2990    0.0000 C   0  0  0  0  0  0  0  0  0  0  0  0
  1  2  1  0
  2  3  2  0
  3  4  1  0
  4  5  2  0
  5  6  1  0
  6  7  1  0
  7  8  1  0
  8  9  2  0
  9 10  1  0
 10 11  1  0
 11 12  1  0
 12 13  2  0
 13 14  1  0
 14 15  2  0
 15 16  1  0
 16 17  1  0
 17 18  2  0
 17 19  1  0
 19 20  1  0
 20 21  1  0
 21 22  1  0
 21 23  1  0
 19 24  1  0
 24 25  1  0
 25 26  1  0
 25 27  1  0
 16 28  2  0
 10 29  2  0
 29 30  1  0
 30 31  2  0
  6 32  2  0
 32  2  1  0
 31  8  1  0
 28 12  1  0
M  END
>  <Compound_ID>  (775) 
CHEMBL483318

>  <Molecule Name>  (775) 
nan

>  <Molecular Weight>  (775) 
435.53

>  <AlogP>  (775) 
3.48

>  <Smiles>  (775) 
Cc1cccc(Nc2cc(Nc3cccc(C(=O)N(CC(C)O)CC(C)O)c3)ncn2)c1

>  <Standard Type>  (775) 
Inhibition

>  <Standard Relation>  (775) 
'='

>  <Standard Units>  (775) 
%

>  <Standard Value>  (775) 
11.0

>  <Assay ChEMBL ID>  (775) 
CHEMBL965679

>  <Assay Description>  (775) 
Inhibition of TrkA at 10 uM by HTRF assay relative to control

>  <BAO Format ID>  (775) 
BAO_0000357

>  <BAO Label>  (775) 
single protein format

>  <Assay Organism>  (775) 
None

>  <Target ChEMBL ID>  (775) 
CHEMBL2815

>  <Target Name>  (775) 
Nerve growth factor receptor Trk-A

>  <Target Organism>  (775) 
Homo sapiens

>  <Target Type>  (775) 
SINGLE PROTEIN

>  <Document ChEMBL ID>  (775) 
CHEMBL1150387

>  <Source Description>  (775) 
Scientific Literature

>  <Document Journal>  (775) 
J Med Chem

>  <Document Year>  (775) 
2008.0

>  <Active>  (775) 
0.0

>  <bits>  (775) 
<rdkit.DataStructs.cDataStructs.ExplicitBitVect object at 0x00000159F7933D80>

>  <Group>  (775) 
G2

$$$$

     RDKit          2D

 24 27  0  0  0  0  0  0  0  0999 V2000
   -9.0165    4.3002    0.0000 N   0  0  0  0  0  0  0  0  0  0  0  0
   -7.9018    3.2966    0.0000 C   0  0  0  0  0  0  0  0  0  0  0  0
   -6.7871    2.2929    0.0000 C   0  0  0  0  0  0  0  0  0  0  0  0
   -5.3605    2.7564    0.0000 C   0  0  0  0  0  0  0  0  0  0  0  0
   -4.2458    1.7527    0.0000 C   0  0  0  0  0  0  0  0  0  0  0  0
   -4.5577    0.2855    0.0000 C   0  0  0  0  0  0  0  0  0  0  0  0
   -5.9843   -0.1781    0.0000 C   0  0  0  0  0  0  0  0  0  0  0  0
   -6.2961   -1.6453    0.0000 N   0  0  0  0  0  0  0  0  0  0  0  0
   -5.1814   -2.6490    0.0000 C   0  0  0  0  0  0  0  0  0  0  0  0
   -5.4933   -4.1162    0.0000 N   0  0  0  0  0  0  0  0  0  0  0  0
   -4.3786   -5.1199    0.0000 C   0  0  0  0  0  0  0  0  0  0  0  0
   -2.9520   -4.6564    0.0000 C   0  0  0  0  0  0  0  0  0  0  0  0
   -2.6401   -3.1891    0.0000 C   0  0  0  0  0  0  0  0  0  0  0  0
   -1.2135   -2.7256    0.0000 C   0  0  0  0  0  0  0  0  0  0  0  0
   -0.0000   -3.6073    0.0000 C   0  0  0  0  0  0  0  0  0  0  0  0
    1.2135   -2.7256    0.0000 N   0  0  0  0  0  0  0  0  0  0  0  0
    0.7500   -1.2990    0.0000 N   0  0  0  0  0  0  0  0  0  0  0  0
    1.5000    0.0000    0.0000 N   0  0  0  0  0  0  0  0  0  0  0  0
    0.7500    1.2990    0.0000 C   0  0  0  0  0  0  0  0  0  0  0  0
   -0.7500    1.2990    0.0000 C   0  0  0  0  0  0  0  0  0  0  0  0
   -1.5000    0.0000    0.0000 C   0  0  0  0  0  0  0  0  0  0  0  0
   -0.7500   -1.2990    0.0000 C   0  0  0  0  0  0  0  0  0  0  0  0
   -3.7548   -2.1855    0.0000 N   0  0  0  0  0  0  0  0  0  0  0  0
   -7.0990    0.8256    0.0000 C   0  0  0  0  0  0  0  0  0  0  0  0
  1  2  3  0
  2  3  1  0
  3  4  2  0
  4  5  1  0
  5  6  2  0
  6  7  1  0
  7  8  1  0
  8  9  1  0
  9 10  2  0
 10 11  1  0
 11 12  2  0
 12 13  1  0
 13 14  1  0
 14 15  1  0
 15 16  2  0
 16 17  1  0
 17 18  1  0
 18 19  2  0
 19 20  1  0
 20 21  2  0
 21 22  1  0
 13 23  2  0
  7 24  2  0
 24  3  1  0
 23  9  1  0
 22 14  2  0
 22 17  1  0
M  END
>  <Compound_ID>  (776) 
CHEMBL495696

>  <Molecule Name>  (776) 
GW778894X

>  <Molecular Weight>  (776) 
313.32

>  <AlogP>  (776) 
2.8

>  <Smiles>  (776) 
N#Cc1cccc(Nc2nccc(-c3cnn4ncccc34)n2)c1

>  <Standard Type>  (776) 
Inhibition

>  <Standard Relation>  (776) 
'='

>  <Standard Units>  (776) 
%

>  <Standard Value>  (776) 
15.44

>  <Assay ChEMBL ID>  (776) 
CHEMBL1962184

>  <Assay Description>  (776) 
GSK_PKIS: TRKA mean inhibition at 0.1 uM [Nanosyn]

>  <BAO Format ID>  (776) 
BAO_0000357

>  <BAO Label>  (776) 
single protein format

>  <Assay Organism>  (776) 
None

>  <Target ChEMBL ID>  (776) 
CHEMBL2815

>  <Target Name>  (776) 
Nerve growth factor receptor Trk-A

>  <Target Organism>  (776) 
Homo sapiens

>  <Target Type>  (776) 
SINGLE PROTEIN

>  <Document ChEMBL ID>  (776) 
CHEMBL1961873

>  <Source Description>  (776) 
GSK Published Kinase Inhibitor Set

>  <Document Journal>  (776) 
nan

>  <Document Year>  (776) 
nan

>  <Active>  (776) 
0.0

>  <bits>  (776) 
<rdkit.DataStructs.cDataStructs.ExplicitBitVect object at 0x00000159F79334C0>

>  <Group>  (776) 
G2

$$$$

     RDKit          2D

 34 37  0  0  0  0  0  0  0  0999 V2000
    3.7500   -1.2990    0.0000 C   0  0  0  0  0  0  0  0  0  0  0  0
    3.0000    0.0000    0.0000 O   0  0  0  0  0  0  0  0  0  0  0  0
    1.5000    0.0000    0.0000 C   0  0  0  0  0  0  0  0  0  0  0  0
    0.7500   -1.2990    0.0000 C   0  0  0  0  0  0  0  0  0  0  0  0
   -0.7500   -1.2990    0.0000 C   0  0  0  0  0  0  0  0  0  0  0  0
   -1.5000    0.0000    0.0000 C   0  0  0  0  0  0  0  0  0  0  0  0
   -3.0000    0.0000    0.0000 N   0  0  0  0  0  0  0  0  0  0  0  0
   -3.7500    1.2990    0.0000 C   0  0  0  0  0  0  0  0  0  0  0  0
   -3.0000    2.5981    0.0000 O   0  0  0  0  0  0  0  0  0  0  0  0
   -5.2500    1.2990    0.0000 C   0  0  0  0  0  0  0  0  0  0  0  0
   -6.0000    2.5981    0.0000 C   0  0  0  0  0  0  0  0  0  0  0  0
   -5.2500    3.8971    0.0000 C   0  0  0  0  0  0  0  0  0  0  0  0
   -6.0000    5.1962    0.0000 C   0  0  0  0  0  0  0  0  0  0  0  0
   -7.5000    5.1962    0.0000 C   0  0  0  0  0  0  0  0  0  0  0  0
   -8.2500    6.4952    0.0000 N   0  0  0  0  0  0  0  0  0  0  0  0
   -7.5000    7.7942    0.0000 C   0  0  0  0  0  0  0  0  0  0  0  0
   -6.0000    7.7942    0.0000 C   0  0  0  0  0  0  0  0  0  0  0  0
   -5.2500    9.0933    0.0000 C   0  0  0  0  0  0  0  0  0  0  0  0
   -3.7500    9.0933    0.0000 N   0  0  0  0  0  0  0  0  0  0  0  0
   -3.0000    7.7942    0.0000 C   0  0  0  0  0  0  0  0  0  0  0  0
   -3.0000   10.3923    0.0000 C   0  0  0  0  0  0  0  0  0  0  0  0
   -1.5000   10.3923    0.0000 C   0  0  0  0  0  0  0  0  0  0  0  0
   -0.7500   11.6913    0.0000 C   0  0  0  0  0  0  0  0  0  0  0  0
   -1.5000   12.9904    0.0000 C   0  0  0  0  0  0  0  0  0  0  0  0
   -3.0000   12.9904    0.0000 C   0  0  0  0  0  0  0  0  0  0  0  0
   -3.7500   14.2894    0.0000 C   0  0  0  0  0  0  0  0  0  0  0  0
   -3.7500   11.6913    0.0000 C   0  0  0  0  0  0  0  0  0  0  0  0
   -6.0000   10.3923    0.0000 N   0  0  0  0  0  0  0  0  0  0  0  0
   -7.5000   10.3923    0.0000 C   0  0  0  0  0  0  0  0  0  0  0  0
   -8.2500    9.0933    0.0000 N   0  0  0  0  0  0  0  0  0  0  0  0
   -8.2500    3.8971    0.0000 C   0  0  0  0  0  0  0  0  0  0  0  0
   -7.5000    2.5981    0.0000 C   0  0  0  0  0  0  0  0  0  0  0  0
   -0.7500    1.2990    0.0000 C   0  0  0  0  0  0  0  0  0  0  0  0
    0.7500    1.2990    0.0000 N   0  0  0  0  0  0  0  0  0  0  0  0
  1  2  1  0
  2  3  1  0
  3  4  2  0
  4  5  1  0
  5  6  2  0
  6  7  1  0
  7  8  1  0
  8  9  2  0
  8 10  1  0
 10 11  1  0
 11 12  2  0
 12 13  1  0
 13 14  2  0
 14 15  1  0
 15 16  1  0
 16 17  2  0
 17 18  1  0
 18 19  1  0
 19 20  1  0
 19 21  1  0
 21 22  2  0
 22 23  1  0
 23 24  2  0
 24 25  1  0
 25 26  1  0
 25 27  2  0
 18 28  2  0
 28 29  1  0
 29 30  2  0
 14 31  1  0
 31 32  2  0
  6 33  1  0
 33 34  2  0
 34  3  1  0
 32 11  1  0
 30 16  1  0
 27 21  1  0
M  END
>  <Compound_ID>  (777) 
CHEMBL526914

>  <Molecule Name>  (777) 
nan

>  <Molecular Weight>  (777) 
454.53

>  <AlogP>  (777) 
4.88

>  <Smiles>  (777) 
COc1ccc(NC(=O)Cc2ccc(Nc3cc(N(C)c4cccc(C)c4)ncn3)cc2)cn1

>  <Standard Type>  (777) 
Inhibition

>  <Standard Relation>  (777) 
'='

>  <Standard Units>  (777) 
%

>  <Standard Value>  (777) 
10.0

>  <Assay ChEMBL ID>  (777) 
CHEMBL965679

>  <Assay Description>  (777) 
Inhibition of TrkA at 10 uM by HTRF assay relative to control

>  <BAO Format ID>  (777) 
BAO_0000357

>  <BAO Label>  (777) 
single protein format

>  <Assay Organism>  (777) 
None

>  <Target ChEMBL ID>  (777) 
CHEMBL2815

>  <Target Name>  (777) 
Nerve growth factor receptor Trk-A

>  <Target Organism>  (777) 
Homo sapiens

>  <Target Type>  (777) 
SINGLE PROTEIN

>  <Document ChEMBL ID>  (777) 
CHEMBL1150387

>  <Source Description>  (777) 
Scientific Literature

>  <Document Journal>  (777) 
J Med Chem

>  <Document Year>  (777) 
2008.0

>  <Active>  (777) 
0.0

>  <bits>  (777) 
<rdkit.DataStructs.cDataStructs.ExplicitBitVect object at 0x00000159F7932FF0>

>  <Group>  (777) 
G2

$$$$

     RDKit          2D

 22 25  0  0  0  0  0  0  0  0999 V2000
    4.0519   -4.9608    0.0000 C   0  0  0  0  0  0  0  0  0  0  0  0
    3.0482   -6.0755    0.0000 C   0  0  0  0  0  0  0  0  0  0  0  0
    3.5118   -7.5021    0.0000 C   0  0  0  0  0  0  0  0  0  0  0  0
    2.5081   -8.6168    0.0000 C   0  0  0  0  0  0  0  0  0  0  0  0
    1.0409   -8.3049    0.0000 C   0  0  0  0  0  0  0  0  0  0  0  0
    0.5773   -6.8783    0.0000 C   0  0  0  0  0  0  0  0  0  0  0  0
   -0.8899   -6.5665    0.0000 C   0  0  0  0  0  0  0  0  0  0  0  0
   -2.0046   -7.5702    0.0000 N   0  0  0  0  0  0  0  0  0  0  0  0
   -3.3037   -6.8202    0.0000 N   0  0  0  0  0  0  0  0  0  0  0  0
   -2.9918   -5.3529    0.0000 C   0  0  0  0  0  0  0  0  0  0  0  0
   -1.5000   -5.1962    0.0000 C   0  0  0  0  0  0  0  0  0  0  0  0
   -0.7500   -3.8971    0.0000 C   0  0  0  0  0  0  0  0  0  0  0  0
    0.7500   -3.8971    0.0000 C   0  0  0  0  0  0  0  0  0  0  0  0
    1.5000   -2.5981    0.0000 C   0  0  0  0  0  0  0  0  0  0  0  0
    0.7500   -1.2990    0.0000 C   0  0  0  0  0  0  0  0  0  0  0  0
    1.5000    0.0000    0.0000 N   0  0  0  0  0  0  0  0  0  0  0  0
    0.7500    1.2990    0.0000 C   0  0  0  0  0  0  0  0  0  0  0  0
   -0.7500    1.2990    0.0000 C   0  0  0  0  0  0  0  0  0  0  0  0
   -1.5000    0.0000    0.0000 C   0  0  0  0  0  0  0  0  0  0  0  0
   -0.7500   -1.2990    0.0000 C   0  0  0  0  0  0  0  0  0  0  0  0
   -1.5000   -2.5981    0.0000 N   0  0  0  0  0  0  0  0  0  0  0  0
    1.5810   -5.7636    0.0000 N   0  0  0  0  0  0  0  0  0  0  0  0
  1  2  1  0
  2  3  2  0
  3  4  1  0
  4  5  2  0
  5  6  1  0
  6  7  1  0
  7  8  2  0
  8  9  1  0
  9 10  1  0
 10 11  2  0
 11 12  1  0
 12 13  2  0
 13 14  1  0
 14 15  2  0
 15 16  1  0
 16 17  2  0
 17 18  1  0
 18 19  2  0
 19 20  1  0
 20 21  2  0
  6 22  2  0
 22  2  1  0
 11  7  1  0
 21 12  1  0
 20 15  1  0
M  END
>  <Compound_ID>  (778) 
CHEMBL185238

>  <Molecule Name>  (778) 
GW786460X

>  <Molecular Weight>  (778) 
287.33

>  <AlogP>  (778) 
3.39

>  <Smiles>  (778) 
Cc1cccc(-c2n[nH]cc2-c2ccc3ncccc3n2)n1

>  <Standard Type>  (778) 
Inhibition

>  <Standard Relation>  (778) 
'='

>  <Standard Units>  (778) 
%

>  <Standard Value>  (778) 
-0.2

>  <Assay ChEMBL ID>  (778) 
CHEMBL1962185

>  <Assay Description>  (778) 
GSK_PKIS: TRKA mean inhibition at 1 uM [Nanosyn]

>  <BAO Format ID>  (778) 
BAO_0000357

>  <BAO Label>  (778) 
single protein format

>  <Assay Organism>  (778) 
None

>  <Target ChEMBL ID>  (778) 
CHEMBL2815

>  <Target Name>  (778) 
Nerve growth factor receptor Trk-A

>  <Target Organism>  (778) 
Homo sapiens

>  <Target Type>  (778) 
SINGLE PROTEIN

>  <Document ChEMBL ID>  (778) 
CHEMBL1961873

>  <Source Description>  (778) 
GSK Published Kinase Inhibitor Set

>  <Document Journal>  (778) 
nan

>  <Document Year>  (778) 
nan

>  <Active>  (778) 
0.0

>  <bits>  (778) 
<rdkit.DataStructs.cDataStructs.ExplicitBitVect object at 0x00000159F7932180>

>  <Group>  (778) 
G2

$$$$

     RDKit          2D

 16 18  0  0  0  0  0  0  0  0999 V2000
   -2.6401   -3.1891    0.0000 C   0  0  0  0  0  0  0  0  0  0  0  0
   -1.2135   -2.7256    0.0000 N   0  0  0  0  0  0  0  0  0  0  0  0
   -0.0000   -3.6073    0.0000 C   0  0  0  0  0  0  0  0  0  0  0  0
   -0.0000   -5.1073    0.0000 C   0  0  0  0  0  0  0  0  0  0  0  0
    1.2135   -5.9890    0.0000 N   0  0  0  0  0  0  0  0  0  0  0  0
    0.7500   -7.4156    0.0000 O   0  0  0  0  0  0  0  0  0  0  0  0
   -0.7500   -7.4156    0.0000 N   0  0  0  0  0  0  0  0  0  0  0  0
   -1.2135   -5.9890    0.0000 C   0  0  0  0  0  0  0  0  0  0  0  0
   -2.6401   -5.5255    0.0000 N   0  0  0  0  0  0  0  0  0  0  0  0
    1.2135   -2.7256    0.0000 N   0  0  0  0  0  0  0  0  0  0  0  0
    0.7500   -1.2990    0.0000 C   0  0  0  0  0  0  0  0  0  0  0  0
    1.5000    0.0000    0.0000 C   0  0  0  0  0  0  0  0  0  0  0  0
    0.7500    1.2990    0.0000 N   0  0  0  0  0  0  0  0  0  0  0  0
   -0.7500    1.2990    0.0000 C   0  0  0  0  0  0  0  0  0  0  0  0
   -1.5000    0.0000    0.0000 C   0  0  0  0  0  0  0  0  0  0  0  0
   -0.7500   -1.2990    0.0000 C   0  0  0  0  0  0  0  0  0  0  0  0
  1  2  1  0
  2  3  1  0
  3  4  1  0
  4  5  2  0
  5  6  1  0
  6  7  1  0
  7  8  2  0
  8  9  1  0
  3 10  2  0
 10 11  1  0
 11 12  2  0
 12 13  1  0
 13 14  2  0
 14 15  1  0
 15 16  2  0
 16  2  1  0
  8  4  1  0
 16 11  1  0
M  END
>  <Compound_ID>  (779) 
CHEMBL188048

>  <Molecule Name>  (779) 
nan

>  <Molecular Weight>  (779) 
216.2

>  <AlogP>  (779) 
0.6

>  <Smiles>  (779) 
Cn1c(-c2nonc2N)nc2cnccc21

>  <Standard Type>  (779) 
Inhibition

>  <Standard Relation>  (779) 
'='

>  <Standard Units>  (779) 
%

>  <Standard Value>  (779) 
0.76

>  <Assay ChEMBL ID>  (779) 
CHEMBL1962185

>  <Assay Description>  (779) 
GSK_PKIS: TRKA mean inhibition at 1 uM [Nanosyn]

>  <BAO Format ID>  (779) 
BAO_0000357

>  <BAO Label>  (779) 
single protein format

>  <Assay Organism>  (779) 
None

>  <Target ChEMBL ID>  (779) 
CHEMBL2815

>  <Target Name>  (779) 
Nerve growth factor receptor Trk-A

>  <Target Organism>  (779) 
Homo sapiens

>  <Target Type>  (779) 
SINGLE PROTEIN

>  <Document ChEMBL ID>  (779) 
CHEMBL1961873

>  <Source Description>  (779) 
GSK Published Kinase Inhibitor Set

>  <Document Journal>  (779) 
nan

>  <Document Year>  (779) 
nan

>  <Active>  (779) 
0.0

>  <bits>  (779) 
<rdkit.DataStructs.cDataStructs.ExplicitBitVect object at 0x00000159F7931310>

>  <Group>  (779) 
G2

$$$$

     RDKit          2D

 22 25  0  0  0  0  0  0  0  0999 V2000
   -4.6883    2.2939    0.0000 C   0  0  0  0  0  0  0  0  0  0  0  0
   -4.3764    3.7611    0.0000 C   0  0  0  0  0  0  0  0  0  0  0  0
   -5.4912    4.7648    0.0000 C   0  0  0  0  0  0  0  0  0  0  0  0
   -5.1793    6.2320    0.0000 C   0  0  0  0  0  0  0  0  0  0  0  0
   -3.7527    6.6955    0.0000 C   0  0  0  0  0  0  0  0  0  0  0  0
   -3.4408    8.1628    0.0000 C   0  0  0  0  0  0  0  0  0  0  0  0
   -4.5556    9.1664    0.0000 O   0  0  0  0  0  0  0  0  0  0  0  0
   -2.0143    8.6263    0.0000 N   0  0  0  0  0  0  0  0  0  0  0  0
   -1.7024   10.0935    0.0000 C   0  0  0  0  0  0  0  0  0  0  0  0
   -2.1659   11.5201    0.0000 C   0  0  0  0  0  0  0  0  0  0  0  0
   -0.6987   11.2082    0.0000 C   0  0  0  0  0  0  0  0  0  0  0  0
   -2.6380    5.6918    0.0000 C   0  0  0  0  0  0  0  0  0  0  0  0
   -2.9499    4.2246    0.0000 C   0  0  0  0  0  0  0  0  0  0  0  0
   -1.8351    3.2209    0.0000 C   0  0  0  0  0  0  0  0  0  0  0  0
   -0.4086    3.6844    0.0000 C   0  0  0  0  0  0  0  0  0  0  0  0
    0.7062    2.6807    0.0000 C   0  0  0  0  0  0  0  0  0  0  0  0
    0.3943    1.2135    0.0000 C   0  0  0  0  0  0  0  0  0  0  0  0
    1.2760    0.0000    0.0000 N   0  0  0  0  0  0  0  0  0  0  0  0
    0.3943   -1.2135    0.0000 N   0  0  0  0  0  0  0  0  0  0  0  0
   -1.0323   -0.7500    0.0000 C   0  0  0  0  0  0  0  0  0  0  0  0
   -1.0323    0.7500    0.0000 C   0  0  0  0  0  0  0  0  0  0  0  0
   -2.1470    1.7537    0.0000 C   0  0  0  0  0  0  0  0  0  0  0  0
  1  2  1  0
  2  3  2  0
  3  4  1  0
  4  5  2  0
  5  6  1  0
  6  7  2  0
  6  8  1  0
  8  9  1  0
  9 10  1  0
 10 11  1  0
  5 12  1  0
 12 13  2  0
 13 14  1  0
 14 15  2  0
 15 16  1  0
 16 17  2  0
 17 18  1  0
 18 19  1  0
 19 20  2  0
 20 21  1  0
 21 22  2  0
 13  2  1  0
 22 14  1  0
 11  9  1  0
 21 17  1  0
M  END
>  <Compound_ID>  (780) 
CHEMBL495902

>  <Molecule Name>  (780) 
GW820759X

>  <Molecular Weight>  (780) 
291.35

>  <AlogP>  (780) 
3.43

>  <Smiles>  (780) 
Cc1ccc(C(=O)NC2CC2)cc1-c1ccc2[nH]ncc2c1

>  <Standard Type>  (780) 
Inhibition

>  <Standard Relation>  (780) 
'='

>  <Standard Units>  (780) 
%

>  <Standard Value>  (780) 
1.88

>  <Assay ChEMBL ID>  (780) 
CHEMBL1962184

>  <Assay Description>  (780) 
GSK_PKIS: TRKA mean inhibition at 0.1 uM [Nanosyn]

>  <BAO Format ID>  (780) 
BAO_0000357

>  <BAO Label>  (780) 
single protein format

>  <Assay Organism>  (780) 
None

>  <Target ChEMBL ID>  (780) 
CHEMBL2815

>  <Target Name>  (780) 
Nerve growth factor receptor Trk-A

>  <Target Organism>  (780) 
Homo sapiens

>  <Target Type>  (780) 
SINGLE PROTEIN

>  <Document ChEMBL ID>  (780) 
CHEMBL1961873

>  <Source Description>  (780) 
GSK Published Kinase Inhibitor Set

>  <Document Journal>  (780) 
nan

>  <Document Year>  (780) 
nan

>  <Active>  (780) 
0.0

>  <bits>  (780) 
<rdkit.DataStructs.cDataStructs.ExplicitBitVect object at 0x00000159F7931B60>

>  <Group>  (780) 
G2

$$$$

     RDKit          2D

 29 33  0  0  0  0  0  0  0  0999 V2000
   -5.2046    0.1696    0.0000 N   0  0  0  0  0  0  0  0  0  0  0  0
   -5.6682   -1.2570    0.0000 C   0  0  0  0  0  0  0  0  0  0  0  0
   -6.1317   -2.6836    0.0000 C   0  0  0  0  0  0  0  0  0  0  0  0
   -5.2500   -3.8971    0.0000 C   0  0  0  0  0  0  0  0  0  0  0  0
   -3.7500   -3.8971    0.0000 N   0  0  0  0  0  0  0  0  0  0  0  0
   -3.0000   -2.5981    0.0000 C   0  0  0  0  0  0  0  0  0  0  0  0
   -3.7500   -1.2990    0.0000 O   0  0  0  0  0  0  0  0  0  0  0  0
   -1.5000   -2.5981    0.0000 C   0  0  0  0  0  0  0  0  0  0  0  0
   -0.7500   -3.8971    0.0000 C   0  0  0  0  0  0  0  0  0  0  0  0
    0.7500   -3.8971    0.0000 C   0  0  0  0  0  0  0  0  0  0  0  0
    1.5000   -2.5981    0.0000 C   0  0  0  0  0  0  0  0  0  0  0  0
    0.7500   -1.2990    0.0000 C   0  0  0  0  0  0  0  0  0  0  0  0
    1.5000    0.0000    0.0000 C   0  0  0  0  0  0  0  0  0  0  0  0
    0.7500    1.2990    0.0000 C   0  0  0  0  0  0  0  0  0  0  0  0
   -0.7500    1.2990    0.0000 C   0  0  0  0  0  0  0  0  0  0  0  0
   -1.5000    0.0000    0.0000 C   0  0  0  0  0  0  0  0  0  0  0  0
   -0.7500   -1.2990    0.0000 C   0  0  0  0  0  0  0  0  0  0  0  0
   -6.1317   -5.1106    0.0000 S   0  0  0  0  0  0  0  0  0  0  0  0
   -7.5583   -4.6471    0.0000 C   0  0  0  0  0  0  0  0  0  0  0  0
   -7.5583   -3.1471    0.0000 C   0  0  0  0  0  0  0  0  0  0  0  0
   -8.8573   -2.3971    0.0000 C   0  0  0  0  0  0  0  0  0  0  0  0
  -10.1563   -3.1471    0.0000 C   0  0  0  0  0  0  0  0  0  0  0  0
  -10.1563   -4.6471    0.0000 C   0  0  0  0  0  0  0  0  0  0  0  0
   -8.8573   -5.3971    0.0000 N   0  0  0  0  0  0  0  0  0  0  0  0
   -8.8573   -6.8971    0.0000 C   0  0  0  0  0  0  0  0  0  0  0  0
   -7.5583   -7.6471    0.0000 O   0  0  0  0  0  0  0  0  0  0  0  0
  -10.1563   -7.6471    0.0000 C   0  0  0  0  0  0  0  0  0  0  0  0
  -10.9063   -8.9462    0.0000 C   0  0  0  0  0  0  0  0  0  0  0  0
  -11.6563   -7.6471    0.0000 C   0  0  0  0  0  0  0  0  0  0  0  0
  1  2  3  0
  2  3  1  0
  3  4  2  0
  4  5  1  0
  5  6  1  0
  6  7  2  0
  6  8  1  0
  8  9  2  0
  9 10  1  0
 10 11  2  0
 11 12  1  0
 12 13  2  0
 13 14  1  0
 14 15  2  0
 15 16  1  0
 16 17  2  0
  4 18  1  0
 18 19  1  0
 19 20  2  0
 20 21  1  0
 21 22  1  0
 22 23  1  0
 23 24  1  0
 24 25  1  0
 25 26  2  0
 25 27  1  0
 27 28  1  0
 28 29  1  0
 20  3  1  0
 29 27  1  0
 17  8  1  0
 24 19  1  0
 17 12  1  0
M  END
>  <Compound_ID>  (781) 
CHEMBL232601

>  <Molecule Name>  (781) 
GW846105X

>  <Molecular Weight>  (781) 
401.49

>  <AlogP>  (781) 
4.71

>  <Smiles>  (781) 
N#Cc1c(NC(=O)c2cccc3ccccc23)sc2c1CCCN2C(=O)C1CC1

>  <Standard Type>  (781) 
Inhibition

>  <Standard Relation>  (781) 
'='

>  <Standard Units>  (781) 
%

>  <Standard Value>  (781) 
2.43

>  <Assay ChEMBL ID>  (781) 
CHEMBL1962185

>  <Assay Description>  (781) 
GSK_PKIS: TRKA mean inhibition at 1 uM [Nanosyn]

>  <BAO Format ID>  (781) 
BAO_0000357

>  <BAO Label>  (781) 
single protein format

>  <Assay Organism>  (781) 
None

>  <Target ChEMBL ID>  (781) 
CHEMBL2815

>  <Target Name>  (781) 
Nerve growth factor receptor Trk-A

>  <Target Organism>  (781) 
Homo sapiens

>  <Target Type>  (781) 
SINGLE PROTEIN

>  <Document ChEMBL ID>  (781) 
CHEMBL1961873

>  <Source Description>  (781) 
GSK Published Kinase Inhibitor Set

>  <Document Journal>  (781) 
nan

>  <Document Year>  (781) 
nan

>  <Active>  (781) 
0.0

>  <bits>  (781) 
<rdkit.DataStructs.cDataStructs.ExplicitBitVect object at 0x00000159F7933C30>

>  <Group>  (781) 
G2

$$$$

     RDKit          2D

 33 37  0  0  0  0  0  0  0  0999 V2000
    3.7500   -6.4952    0.0000 C   0  0  0  0  0  0  0  0  0  0  0  0
    3.0000   -5.1962    0.0000 C   0  0  0  0  0  0  0  0  0  0  0  0
    1.5000   -5.1962    0.0000 C   0  0  0  0  0  0  0  0  0  0  0  0
    0.7500   -3.8971    0.0000 C   0  0  0  0  0  0  0  0  0  0  0  0
    1.5000   -2.5981    0.0000 C   0  0  0  0  0  0  0  0  0  0  0  0
    0.7500   -1.2990    0.0000 C   0  0  0  0  0  0  0  0  0  0  0  0
    1.5000    0.0000    0.0000 C   0  0  0  0  0  0  0  0  0  0  0  0
    0.7500    1.2990    0.0000 C   0  0  0  0  0  0  0  0  0  0  0  0
   -0.7500    1.2990    0.0000 C   0  0  0  0  0  0  0  0  0  0  0  0
   -1.5000    2.5981    0.0000 N   0  0  0  0  0  0  0  0  0  0  0  0
   -3.0000    2.5981    0.0000 C   0  0  0  0  0  0  0  0  0  0  0  0
   -3.7500    1.2990    0.0000 C   0  0  0  0  0  0  0  0  0  0  0  0
   -3.0000    0.0000    0.0000 C   0  0  0  0  0  0  0  0  0  0  0  0
   -1.5000    0.0000    0.0000 C   0  0  0  0  0  0  0  0  0  0  0  0
   -0.7500   -1.2990    0.0000 N   0  0  0  0  0  0  0  0  0  0  0  0
   -4.0037   -1.1147    0.0000 N   0  0  0  0  0  0  0  0  0  0  0  0
   -3.6918   -2.5819    0.0000 C   0  0  0  0  0  0  0  0  0  0  0  0
   -4.8065   -3.5856    0.0000 C   0  0  0  0  0  0  0  0  0  0  0  0
   -4.4947   -5.0529    0.0000 C   0  0  0  0  0  0  0  0  0  0  0  0
   -3.0681   -5.5164    0.0000 N   0  0  0  0  0  0  0  0  0  0  0  0
   -2.7562   -6.9836    0.0000 C   0  0  0  0  0  0  0  0  0  0  0  0
   -1.3296   -7.4471    0.0000 O   0  0  0  0  0  0  0  0  0  0  0  0
   -3.8709   -7.9873    0.0000 C   0  0  0  0  0  0  0  0  0  0  0  0
   -3.5591   -9.4545    0.0000 C   0  0  0  0  0  0  0  0  0  0  0  0
   -5.2975   -7.5238    0.0000 O   0  0  0  0  0  0  0  0  0  0  0  0
   -1.9534   -4.5127    0.0000 C   0  0  0  0  0  0  0  0  0  0  0  0
   -2.2652   -3.0455    0.0000 C   0  0  0  0  0  0  0  0  0  0  0  0
   -5.3740   -0.5046    0.0000 C   0  0  0  0  0  0  0  0  0  0  0  0
   -6.6731   -1.2546    0.0000 O   0  0  0  0  0  0  0  0  0  0  0  0
   -5.2172    0.9872    0.0000 N   0  0  0  0  0  0  0  0  0  0  0  0
   -6.3319    1.9909    0.0000 C   0  0  0  0  0  0  0  0  0  0  0  0
    3.0000   -2.5981    0.0000 C   0  0  0  0  0  0  0  0  0  0  0  0
    3.7500   -3.8971    0.0000 N   0  0  0  0  0  0  0  0  0  0  0  0
  1  2  1  0
  2  3  2  0
  3  4  1  0
  4  5  2  0
  5  6  1  0
  6  7  2  0
  7  8  1  0
  8  9  2  0
  9 10  1  0
 10 11  2  0
 11 12  1  0
 12 13  2  0
 13 14  1  0
 14 15  2  0
 13 16  1  0
 16 17  1  0
 17 18  1  0
 18 19  1  0
 19 20  1  0
 20 21  1  0
 21 22  2  0
 21 23  1  0
 23 24  1  6
 23 25  1  0
 20 26  1  0
 26 27  1  0
 16 28  1  0
 28 29  2  0
 28 30  1  0
 30 31  1  0
  5 32  1  0
 32 33  2  0
 33  2  1  0
 15  6  1  0
 27 17  1  0
 14  9  1  0
 30 12  1  0
M  END
>  <Compound_ID>  (782) 
CHEMBL2331664

>  <Molecule Name>  (782) 
nan

>  <Molecular Weight>  (782) 
446.51

>  <AlogP>  (782) 
2.2

>  <Smiles>  (782) 
Cc1ccc(-c2ccc3ncc4c(c3n2)n(C2CCN(C(=O)[C@H](C)O)CC2)c(=O)n4C)cn1

>  <Standard Type>  (782) 
Inhibition

>  <Standard Relation>  (782) 
'='

>  <Standard Units>  (782) 
%

>  <Standard Value>  (782) 
9.25

>  <Assay ChEMBL ID>  (782) 
CHEMBL2345839

>  <Assay Description>  (782) 
Inhibition of NTRK1 (unknown origin) at 1 uM

>  <BAO Format ID>  (782) 
BAO_0000357

>  <BAO Label>  (782) 
single protein format

>  <Assay Organism>  (782) 
Homo sapiens

>  <Target ChEMBL ID>  (782) 
CHEMBL2815

>  <Target Name>  (782) 
Nerve growth factor receptor Trk-A

>  <Target Organism>  (782) 
Homo sapiens

>  <Target Type>  (782) 
SINGLE PROTEIN

>  <Document ChEMBL ID>  (782) 
CHEMBL2331555

>  <Source Description>  (782) 
Scientific Literature

>  <Document Journal>  (782) 
ACS Med Chem Lett

>  <Document Year>  (782) 
2013.0

>  <Active>  (782) 
0.0

>  <bits>  (782) 
<rdkit.DataStructs.cDataStructs.ExplicitBitVect object at 0x00000159F7933990>

>  <Group>  (782) 
G2

$$$$

     RDKit          2D

 27 30  0  0  0  0  0  0  0  0999 V2000
    4.1791    8.6583    0.0000 C   0  0  0  0  0  0  0  0  0  0  0  0
    3.7156    7.2317    0.0000 N   0  0  0  0  0  0  0  0  0  0  0  0
    4.7193    6.1170    0.0000 C   0  0  0  0  0  0  0  0  0  0  0  0
    4.2558    4.6904    0.0000 C   0  0  0  0  0  0  0  0  0  0  0  0
    2.7886    4.3786    0.0000 C   0  0  0  0  0  0  0  0  0  0  0  0
    2.3250    2.9520    0.0000 C   0  0  0  0  0  0  0  0  0  0  0  0
    3.3287    1.8373    0.0000 O   0  0  0  0  0  0  0  0  0  0  0  0
    0.8578    2.6401    0.0000 N   0  0  0  0  0  0  0  0  0  0  0  0
    0.3943    1.2135    0.0000 C   0  0  0  0  0  0  0  0  0  0  0  0
    1.2760    0.0000    0.0000 N   0  0  0  0  0  0  0  0  0  0  0  0
    0.3943   -1.2135    0.0000 N   0  0  0  0  0  0  0  0  0  0  0  0
   -1.0323   -0.7500    0.0000 C   0  0  0  0  0  0  0  0  0  0  0  0
   -2.3313   -1.5000    0.0000 N   0  0  0  0  0  0  0  0  0  0  0  0
   -3.6304   -0.7500    0.0000 C   0  0  0  0  0  0  0  0  0  0  0  0
   -4.9294   -1.5000    0.0000 C   0  0  0  0  0  0  0  0  0  0  0  0
   -6.2284   -0.7500    0.0000 C   0  0  0  0  0  0  0  0  0  0  0  0
   -7.5275   -1.5000    0.0000 C   0  0  0  0  0  0  0  0  0  0  0  0
   -7.5275   -3.0000    0.0000 C   0  0  0  0  0  0  0  0  0  0  0  0
   -8.8265   -3.7500    0.0000 O   0  0  0  0  0  0  0  0  0  0  0  0
   -6.2284   -3.7500    0.0000 C   0  0  0  0  0  0  0  0  0  0  0  0
   -4.9294   -3.0000    0.0000 C   0  0  0  0  0  0  0  0  0  0  0  0
   -3.6304    0.7500    0.0000 C   0  0  0  0  0  0  0  0  0  0  0  0
   -4.9294    1.5000    0.0000 Br  0  0  0  0  0  0  0  0  0  0  0  0
   -2.3313    1.5000    0.0000 C   0  0  0  0  0  0  0  0  0  0  0  0
   -1.0323    0.7500    0.0000 C   0  0  0  0  0  0  0  0  0  0  0  0
    1.7849    5.4933    0.0000 C   0  0  0  0  0  0  0  0  0  0  0  0
    2.2484    6.9199    0.0000 C   0  0  0  0  0  0  0  0  0  0  0  0
  1  2  1  0
  2  3  1  0
  3  4  1  0
  4  5  1  0
  5  6  1  0
  6  7  2  0
  6  8  1  0
  8  9  1  0
  9 10  2  0
 10 11  1  0
 11 12  1  0
 12 13  2  0
 13 14  1  0
 14 15  1  0
 15 16  2  0
 16 17  1  0
 17 18  2  0
 18 19  1  0
 18 20  1  0
 20 21  2  0
 14 22  2  0
 22 23  1  0
 22 24  1  0
 24 25  2  0
  5 26  1  0
 26 27  1  0
 27  2  1  0
 25  9  1  0
 25 12  1  0
 21 15  1  0
M  END
>  <Compound_ID>  (783) 
CHEMBL1909347

>  <Molecule Name>  (783) 
nan

>  <Molecular Weight>  (783) 
546.38

>  <AlogP>  (783) 
3.37

>  <Smiles>  (783) 
CN1CCC(C(=O)Nc2n[nH]c3nc(-c4ccc(O)cc4)c(Br)cc23)CC1

>  <Standard Type>  (783) 
Inhibition

>  <Standard Relation>  (783) 
'='

>  <Standard Units>  (783) 
%

>  <Standard Value>  (783) 
2.04

>  <Assay ChEMBL ID>  (783) 
CHEMBL1962185

>  <Assay Description>  (783) 
GSK_PKIS: TRKA mean inhibition at 1 uM [Nanosyn]

>  <BAO Format ID>  (783) 
BAO_0000357

>  <BAO Label>  (783) 
single protein format

>  <Assay Organism>  (783) 
None

>  <Target ChEMBL ID>  (783) 
CHEMBL2815

>  <Target Name>  (783) 
Nerve growth factor receptor Trk-A

>  <Target Organism>  (783) 
Homo sapiens

>  <Target Type>  (783) 
SINGLE PROTEIN

>  <Document ChEMBL ID>  (783) 
CHEMBL1961873

>  <Source Description>  (783) 
GSK Published Kinase Inhibitor Set

>  <Document Journal>  (783) 
nan

>  <Document Year>  (783) 
nan

>  <Active>  (783) 
0.0

>  <bits>  (783) 
<rdkit.DataStructs.cDataStructs.ExplicitBitVect object at 0x00000159F7932810>

>  <Group>  (783) 
G2

$$$$

     RDKit          2D

 28 32  0  0  0  0  0  0  0  0999 V2000
   -1.9091   14.2602    0.0000 O   0  0  0  0  0  0  0  0  0  0  0  0
   -2.7908   13.0467    0.0000 C   0  0  0  0  0  0  0  0  0  0  0  0
   -2.1807   11.6764    0.0000 C   0  0  0  0  0  0  0  0  0  0  0  0
   -0.6889   11.5196    0.0000 C   0  0  0  0  0  0  0  0  0  0  0  0
   -0.0788   10.1493    0.0000 C   0  0  0  0  0  0  0  0  0  0  0  0
   -0.9605    8.9357    0.0000 C   0  0  0  0  0  0  0  0  0  0  0  0
   -0.3504    7.5654    0.0000 C   0  0  0  0  0  0  0  0  0  0  0  0
    1.1168    7.2536    0.0000 N   0  0  0  0  0  0  0  0  0  0  0  0
    1.2736    5.7618    0.0000 C   0  0  0  0  0  0  0  0  0  0  0  0
    2.5727    5.0118    0.0000 C   0  0  0  0  0  0  0  0  0  0  0  0
    2.5727    3.5118    0.0000 C   0  0  0  0  0  0  0  0  0  0  0  0
    3.8717    2.7618    0.0000 C   0  0  0  0  0  0  0  0  0  0  0  0
    5.1707    3.5118    0.0000 C   0  0  0  0  0  0  0  0  0  0  0  0
    5.1707    5.0118    0.0000 C   0  0  0  0  0  0  0  0  0  0  0  0
    3.8717    5.7618    0.0000 N   0  0  0  0  0  0  0  0  0  0  0  0
   -0.0967    5.1517    0.0000 C   0  0  0  0  0  0  0  0  0  0  0  0
   -0.4086    3.6844    0.0000 C   0  0  0  0  0  0  0  0  0  0  0  0
   -1.8351    3.2209    0.0000 C   0  0  0  0  0  0  0  0  0  0  0  0
   -2.1470    1.7537    0.0000 C   0  0  0  0  0  0  0  0  0  0  0  0
   -1.0323    0.7500    0.0000 C   0  0  0  0  0  0  0  0  0  0  0  0
    0.3943    1.2135    0.0000 C   0  0  0  0  0  0  0  0  0  0  0  0
    0.7062    2.6807    0.0000 C   0  0  0  0  0  0  0  0  0  0  0  0
    1.2760    0.0000    0.0000 O   0  0  0  0  0  0  0  0  0  0  0  0
    0.3943   -1.2135    0.0000 C   0  0  0  0  0  0  0  0  0  0  0  0
   -1.0323   -0.7500    0.0000 O   0  0  0  0  0  0  0  0  0  0  0  0
   -1.1004    6.2664    0.0000 N   0  0  0  0  0  0  0  0  0  0  0  0
   -2.4523    9.0925    0.0000 C   0  0  0  0  0  0  0  0  0  0  0  0
   -3.0624   10.4628    0.0000 C   0  0  0  0  0  0  0  0  0  0  0  0
  1  2  1  0
  2  3  1  0
  3  4  2  0
  4  5  1  0
  5  6  2  0
  6  7  1  0
  7  8  2  0
  8  9  1  0
  9 10  1  0
 10 11  2  0
 11 12  1  0
 12 13  2  0
 13 14  1  0
 14 15  2  0
  9 16  2  0
 16 17  1  0
 17 18  2  0
 18 19  1  0
 19 20  2  0
 20 21  1  0
 21 22  2  0
 21 23  1  0
 23 24  1  0
 24 25  1  0
 16 26  1  0
  6 27  1  0
 27 28  2  0
 28  3  1  0
 26  7  1  0
 15 10  1  0
 22 17  1  0
 25 20  1  0
M  END
>  <Compound_ID>  (784) 
CHEMBL267228

>  <Molecule Name>  (784) 
nan

>  <Molecular Weight>  (784) 
371.4

>  <AlogP>  (784) 
4.03

>  <Smiles>  (784) 
OCc1ccc(-c2nc(-c3ccccn3)c(-c3ccc4c(c3)OCO4)[nH]2)cc1

>  <Standard Type>  (784) 
Inhibition

>  <Standard Relation>  (784) 
'='

>  <Standard Units>  (784) 
%

>  <Standard Value>  (784) 
3.45

>  <Assay ChEMBL ID>  (784) 
CHEMBL1962185

>  <Assay Description>  (784) 
GSK_PKIS: TRKA mean inhibition at 1 uM [Nanosyn]

>  <BAO Format ID>  (784) 
BAO_0000357

>  <BAO Label>  (784) 
single protein format

>  <Assay Organism>  (784) 
None

>  <Target ChEMBL ID>  (784) 
CHEMBL2815

>  <Target Name>  (784) 
Nerve growth factor receptor Trk-A

>  <Target Organism>  (784) 
Homo sapiens

>  <Target Type>  (784) 
SINGLE PROTEIN

>  <Document ChEMBL ID>  (784) 
CHEMBL1961873

>  <Source Description>  (784) 
GSK Published Kinase Inhibitor Set

>  <Document Journal>  (784) 
nan

>  <Document Year>  (784) 
nan

>  <Active>  (784) 
0.0

>  <bits>  (784) 
<rdkit.DataStructs.cDataStructs.ExplicitBitVect object at 0x00000159F7932730>

>  <Group>  (784) 
G2

$$$$

     RDKit          2D

 24 26  0  0  0  0  0  0  0  0999 V2000
    5.2500   -1.2990    0.0000 C   0  0  0  0  0  0  0  0  0  0  0  0
    3.7500   -1.2990    0.0000 O   0  0  0  0  0  0  0  0  0  0  0  0
    3.0000    0.0000    0.0000 C   0  0  0  0  0  0  0  0  0  0  0  0
    3.7500    1.2990    0.0000 O   0  0  0  0  0  0  0  0  0  0  0  0
    1.5000    0.0000    0.0000 C   0  0  0  0  0  0  0  0  0  0  0  0
    0.7500   -1.2990    0.0000 C   0  0  0  0  0  0  0  0  0  0  0  0
   -0.7500   -1.2990    0.0000 C   0  0  0  0  0  0  0  0  0  0  0  0
   -1.5000    0.0000    0.0000 C   0  0  0  0  0  0  0  0  0  0  0  0
   -0.7500    1.2990    0.0000 C   0  0  0  0  0  0  0  0  0  0  0  0
    0.7500    1.2990    0.0000 C   0  0  0  0  0  0  0  0  0  0  0  0
   -1.7537    2.4138    0.0000 C   0  0  0  0  0  0  0  0  0  0  0  0
   -1.4418    3.8810    0.0000 C   0  0  0  0  0  0  0  0  0  0  0  0
   -2.5565    4.8847    0.0000 C   0  0  0  0  0  0  0  0  0  0  0  0
   -2.2447    6.3519    0.0000 C   0  0  0  0  0  0  0  0  0  0  0  0
   -3.3594    7.3556    0.0000 C   0  0  0  0  0  0  0  0  0  0  0  0
   -3.0475    8.8228    0.0000 Br  0  0  0  0  0  0  0  0  0  0  0  0
   -4.7860    6.8921    0.0000 C   0  0  0  0  0  0  0  0  0  0  0  0
   -5.9007    7.8958    0.0000 O   0  0  0  0  0  0  0  0  0  0  0  0
   -5.0978    5.4248    0.0000 C   0  0  0  0  0  0  0  0  0  0  0  0
   -6.5244    4.9613    0.0000 Br  0  0  0  0  0  0  0  0  0  0  0  0
   -3.9831    4.4211    0.0000 C   0  0  0  0  0  0  0  0  0  0  0  0
   -3.1240    1.8037    0.0000 C   0  0  0  0  0  0  0  0  0  0  0  0
   -4.4231    2.5537    0.0000 O   0  0  0  0  0  0  0  0  0  0  0  0
   -2.9672    0.3119    0.0000 N   0  0  0  0  0  0  0  0  0  0  0  0
  1  2  1  0
  2  3  1  0
  3  4  2  0
  3  5  1  0
  5  6  2  0
  6  7  1  0
  7  8  2  0
  8  9  1  0
  9 10  2  0
  9 11  1  0
 11 12  2  3
 12 13  1  0
 13 14  2  0
 14 15  1  0
 15 16  1  0
 15 17  2  0
 17 18  1  0
 17 19  1  0
 19 20  1  0
 19 21  2  0
 11 22  1  0
 22 23  2  0
 22 24  1  0
 10  5  1  0
 21 13  1  0
 24  8  1  0
M  END
>  <Compound_ID>  (785) 
CHEMBL1794052

>  <Molecule Name>  (785) 
GW405841X

>  <Molecular Weight>  (785) 
453.09

>  <AlogP>  (785) 
4.2

>  <Smiles>  (785) 
COC(=O)c1ccc2c(c1)C(=Cc1cc(Br)c(O)c(Br)c1)C(=O)N2

>  <Standard Type>  (785) 
Inhibition

>  <Standard Relation>  (785) 
'='

>  <Standard Units>  (785) 
%

>  <Standard Value>  (785) 
2.4

>  <Assay ChEMBL ID>  (785) 
CHEMBL1962184

>  <Assay Description>  (785) 
GSK_PKIS: TRKA mean inhibition at 0.1 uM [Nanosyn]

>  <BAO Format ID>  (785) 
BAO_0000357

>  <BAO Label>  (785) 
single protein format

>  <Assay Organism>  (785) 
None

>  <Target ChEMBL ID>  (785) 
CHEMBL2815

>  <Target Name>  (785) 
Nerve growth factor receptor Trk-A

>  <Target Organism>  (785) 
Homo sapiens

>  <Target Type>  (785) 
SINGLE PROTEIN

>  <Document ChEMBL ID>  (785) 
CHEMBL1961873

>  <Source Description>  (785) 
GSK Published Kinase Inhibitor Set

>  <Document Journal>  (785) 
nan

>  <Document Year>  (785) 
nan

>  <Active>  (785) 
0.0

>  <bits>  (785) 
<rdkit.DataStructs.cDataStructs.ExplicitBitVect object at 0x00000159F79309E0>

>  <Group>  (785) 
G2

$$$$

     RDKit          2D

 27 30  0  0  0  0  0  0  0  0999 V2000
    3.0000    0.0000    0.0000 C   0  0  0  0  0  0  0  0  0  0  0  0
    1.5000    0.0000    0.0000 C   0  0  0  0  0  0  0  0  0  0  0  0
    0.7500   -1.2990    0.0000 C   0  0  0  0  0  0  0  0  0  0  0  0
   -0.7500   -1.2990    0.0000 C   0  0  0  0  0  0  0  0  0  0  0  0
   -1.5000    0.0000    0.0000 C   0  0  0  0  0  0  0  0  0  0  0  0
   -3.0000    0.0000    0.0000 N   0  0  0  0  0  0  0  0  0  0  0  0
   -3.7500    1.2990    0.0000 C   0  0  0  0  0  0  0  0  0  0  0  0
   -3.0000    2.5981    0.0000 O   0  0  0  0  0  0  0  0  0  0  0  0
   -5.2500    1.2990    0.0000 C   0  0  0  0  0  0  0  0  0  0  0  0
   -6.0000    2.5981    0.0000 C   0  0  0  0  0  0  0  0  0  0  0  0
   -7.2990    3.3481    0.0000 C   0  0  0  0  0  0  0  0  0  0  0  0
   -6.0000    4.0981    0.0000 C   0  0  0  0  0  0  0  0  0  0  0  0
   -0.7500    1.2990    0.0000 C   0  0  0  0  0  0  0  0  0  0  0  0
    0.7500    1.2990    0.0000 C   0  0  0  0  0  0  0  0  0  0  0  0
    1.5000    2.5981    0.0000 C   0  0  0  0  0  0  0  0  0  0  0  0
    3.0000    2.5981    0.0000 C   0  0  0  0  0  0  0  0  0  0  0  0
    3.7500    3.8971    0.0000 C   0  0  0  0  0  0  0  0  0  0  0  0
    3.0000    5.1962    0.0000 C   0  0  0  0  0  0  0  0  0  0  0  0
    3.7500    6.4952    0.0000 C   0  0  0  0  0  0  0  0  0  0  0  0
    3.0000    7.7942    0.0000 O   0  0  0  0  0  0  0  0  0  0  0  0
    5.2500    6.4952    0.0000 N   0  0  0  0  0  0  0  0  0  0  0  0
    6.0000    7.7942    0.0000 C   0  0  0  0  0  0  0  0  0  0  0  0
    7.5000    7.7942    0.0000 C   0  0  0  0  0  0  0  0  0  0  0  0
    8.7990    8.5442    0.0000 C   0  0  0  0  0  0  0  0  0  0  0  0
    8.7990    7.0442    0.0000 C   0  0  0  0  0  0  0  0  0  0  0  0
    1.5000    5.1962    0.0000 C   0  0  0  0  0  0  0  0  0  0  0  0
    0.7500    3.8971    0.0000 C   0  0  0  0  0  0  0  0  0  0  0  0
  1  2  1  0
  2  3  2  0
  3  4  1  0
  4  5  2  0
  5  6  1  0
  6  7  1  0
  7  8  2  0
  7  9  1  0
  9 10  1  0
 10 11  1  0
 11 12  1  0
  5 13  1  0
 13 14  2  0
 14 15  1  0
 15 16  2  0
 16 17  1  0
 17 18  2  0
 18 19  1  0
 19 20  2  0
 19 21  1  0
 21 22  1  0
 22 23  1  0
 23 24  1  0
 24 25  1  0
 18 26  1  0
 26 27  2  0
 14  2  1  0
 27 15  1  0
 12 10  1  0
 25 23  1  0
M  END
>  <Compound_ID>  (786) 
CHEMBL516908

>  <Molecule Name>  (786) 
GW796920X

>  <Molecular Weight>  (786) 
362.47

>  <AlogP>  (786) 
4.54

>  <Smiles>  (786) 
Cc1ccc(NC(=O)CC2CC2)cc1-c1ccc(C(=O)NCC2CC2)cc1

>  <Standard Type>  (786) 
Inhibition

>  <Standard Relation>  (786) 
'='

>  <Standard Units>  (786) 
%

>  <Standard Value>  (786) 
1.04

>  <Assay ChEMBL ID>  (786) 
CHEMBL1962185

>  <Assay Description>  (786) 
GSK_PKIS: TRKA mean inhibition at 1 uM [Nanosyn]

>  <BAO Format ID>  (786) 
BAO_0000357

>  <BAO Label>  (786) 
single protein format

>  <Assay Organism>  (786) 
None

>  <Target ChEMBL ID>  (786) 
CHEMBL2815

>  <Target Name>  (786) 
Nerve growth factor receptor Trk-A

>  <Target Organism>  (786) 
Homo sapiens

>  <Target Type>  (786) 
SINGLE PROTEIN

>  <Document ChEMBL ID>  (786) 
CHEMBL1961873

>  <Source Description>  (786) 
GSK Published Kinase Inhibitor Set

>  <Document Journal>  (786) 
nan

>  <Document Year>  (786) 
nan

>  <Active>  (786) 
0.0

>  <bits>  (786) 
<rdkit.DataStructs.cDataStructs.ExplicitBitVect object at 0x00000159F7930890>

>  <Group>  (786) 
G2

$$$$

     RDKit          2D

 38 43  0  0  0  0  0  0  0  0999 V2000
   -5.1962   -9.6073    0.0000 C   0  0  0  0  0  0  0  0  0  0  0  0
   -3.8971  -10.3573    0.0000 C   0  0  0  0  0  0  0  0  0  0  0  0
   -2.5981   -9.6073    0.0000 C   0  0  0  0  0  0  0  0  0  0  0  0
   -2.5981   -8.1073    0.0000 C   0  0  0  0  0  0  0  0  0  0  0  0
   -1.2990   -7.3573    0.0000 C   0  0  0  0  0  0  0  0  0  0  0  0
   -1.2990   -5.8573    0.0000 C   0  0  0  0  0  0  0  0  0  0  0  0
   -0.0000   -5.1073    0.0000 N   0  0  0  0  0  0  0  0  0  0  0  0
   -0.0000   -3.6073    0.0000 C   0  0  0  0  0  0  0  0  0  0  0  0
   -1.2135   -2.7256    0.0000 C   0  0  0  0  0  0  0  0  0  0  0  0
   -0.7500   -1.2990    0.0000 C   0  0  0  0  0  0  0  0  0  0  0  0
    0.7500   -1.2990    0.0000 N   0  0  0  0  0  0  0  0  0  0  0  0
    1.2135   -2.7256    0.0000 N   0  0  0  0  0  0  0  0  0  0  0  0
    1.5000    0.0000    0.0000 C   0  0  0  0  0  0  0  0  0  0  0  0
    0.7500    1.2990    0.0000 C   0  0  0  0  0  0  0  0  0  0  0  0
   -0.7500    1.2990    0.0000 N   0  0  0  0  0  0  0  0  0  0  0  0
   -1.5000    2.5981    0.0000 C   0  0  0  0  0  0  0  0  0  0  0  0
   -1.5000    0.0000    0.0000 C   0  0  0  0  0  0  0  0  0  0  0  0
   -2.5981   -5.1073    0.0000 C   0  0  0  0  0  0  0  0  0  0  0  0
   -2.5981   -3.6073    0.0000 O   0  0  0  0  0  0  0  0  0  0  0  0
   -3.8971   -5.8573    0.0000 N   0  0  0  0  0  0  0  0  0  0  0  0
   -3.8971   -7.3573    0.0000 N   0  0  0  0  0  0  0  0  0  0  0  0
   -1.2990  -10.3573    0.0000 C   0  0  0  0  0  0  0  0  0  0  0  0
   -1.2990  -11.8573    0.0000 C   0  0  0  0  0  0  0  0  0  0  0  0
   -2.5981  -12.6073    0.0000 C   0  0  0  0  0  0  0  0  0  0  0  0
   -2.5981  -14.1073    0.0000 F   0  0  0  0  0  0  0  0  0  0  0  0
   -3.8971  -11.8573    0.0000 C   0  0  0  0  0  0  0  0  0  0  0  0
   -5.1962  -12.6073    0.0000 N   0  0  0  0  0  0  0  0  0  0  0  0
   -6.4952  -11.8573    0.0000 C   0  0  0  0  0  0  0  0  0  0  0  0
   -6.4952  -10.3573    0.0000 O   0  0  0  0  0  0  0  0  0  0  0  0
   -7.7942  -12.6073    0.0000 C   0  0  0  0  0  0  0  0  0  0  0  0
   -9.1645  -11.9972    0.0000 C   0  0  0  0  0  0  0  0  0  0  0  0
  -10.1682  -13.1119    0.0000 C   0  0  0  0  0  0  0  0  0  0  0  0
  -11.6682  -13.1119    0.0000 C   0  0  0  0  0  0  0  0  0  0  0  0
  -12.4182  -14.4110    0.0000 C   0  0  0  0  0  0  0  0  0  0  0  0
  -11.6682  -15.7100    0.0000 C   0  0  0  0  0  0  0  0  0  0  0  0
  -10.1682  -15.7100    0.0000 C   0  0  0  0  0  0  0  0  0  0  0  0
   -9.4182  -14.4110    0.0000 C   0  0  0  0  0  0  0  0  0  0  0  0
   -7.9510  -14.0991    0.0000 S   0  0  0  0  0  0  0  0  0  0  0  0
  1  2  1  0
  2  3  2  0
  3  4  1  0
  4  5  1  0
  5  6  2  0
  6  7  1  0
  7  8  1  0
  8  9  1  0
  9 10  2  0
 10 11  1  0
 11 12  1  0
 11 13  1  0
 13 14  1  0
 14 15  1  0
 15 16  1  0
 15 17  1  0
  6 18  1  0
 18 19  2  0
 18 20  1  0
 20 21  1  0
  3 22  1  0
 22 23  2  0
 23 24  1  0
 24 25  1  0
 24 26  2  0
 26 27  1  0
 27 28  1  0
 28 29  2  0
 28 30  1  0
 30 31  2  0
 31 32  1  0
 32 33  2  0
 33 34  1  0
 34 35  2  0
 35 36  1  0
 36 37  2  0
 37 38  1  0
 26  2  1  0
 38 30  1  0
 21  4  2  0
 37 32  1  0
 12  8  2  0
 17 10  1  0
M  END
>  <Compound_ID>  (787) 
CHEMBL3746293

>  <Molecule Name>  (787) 
nan

>  <Molecular Weight>  (787) 
529.6

>  <AlogP>  (787) 
4.74

>  <Smiles>  (787) 
Cc1c(-c2cc(Nc3cc4n(n3)CCN(C)C4)c(=O)[nH]n2)ccc(F)c1NC(=O)c1cc2ccccc2s1

>  <Standard Type>  (787) 
Inhibition

>  <Standard Relation>  (787) 
'='

>  <Standard Units>  (787) 
%

>  <Standard Value>  (787) 
-8.0

>  <Assay ChEMBL ID>  (787) 
CHEMBL3750454

>  <Assay Description>  (787) 
Inhibition of TrkA (unknown origin) at 1 uM

>  <BAO Format ID>  (787) 
BAO_0000357

>  <BAO Label>  (787) 
single protein format

>  <Assay Organism>  (787) 
Homo sapiens

>  <Target ChEMBL ID>  (787) 
CHEMBL2815

>  <Target Name>  (787) 
Nerve growth factor receptor Trk-A

>  <Target Organism>  (787) 
Homo sapiens

>  <Target Type>  (787) 
SINGLE PROTEIN

>  <Document ChEMBL ID>  (787) 
CHEMBL3745631

>  <Source Description>  (787) 
Scientific Literature

>  <Document Journal>  (787) 
Bioorg Med Chem Lett

>  <Document Year>  (787) 
2016.0

>  <Active>  (787) 
0.0

>  <bits>  (787) 
<rdkit.DataStructs.cDataStructs.ExplicitBitVect object at 0x00000159F7931F50>

>  <Group>  (787) 
G2

$$$$

     RDKit          2D

 35 39  0  0  0  0  0  0  0  0999 V2000
    1.5000   -7.7942    0.0000 O   0  0  0  0  0  0  0  0  0  0  0  0
    3.0000   -7.7942    0.0000 C   0  0  0  0  0  0  0  0  0  0  0  0
    3.7500   -6.4952    0.0000 C   0  0  0  0  0  0  0  0  0  0  0  0
    3.0000   -5.1962    0.0000 N   0  0  0  0  0  0  0  0  0  0  0  0
    3.7500   -3.8971    0.0000 C   0  0  0  0  0  0  0  0  0  0  0  0
    3.0000   -2.5981    0.0000 C   0  0  0  0  0  0  0  0  0  0  0  0
    1.5000   -2.5981    0.0000 N   0  0  0  0  0  0  0  0  0  0  0  0
    0.7500   -1.2990    0.0000 C   0  0  0  0  0  0  0  0  0  0  0  0
    1.5000    0.0000    0.0000 N   0  0  0  0  0  0  0  0  0  0  0  0
    0.7500    1.2990    0.0000 C   0  0  0  0  0  0  0  0  0  0  0  0
   -0.7500    1.2990    0.0000 N   0  0  0  0  0  0  0  0  0  0  0  0
   -1.5000    0.0000    0.0000 C   0  0  0  0  0  0  0  0  0  0  0  0
   -0.7500   -1.2990    0.0000 C   0  0  0  0  0  0  0  0  0  0  0  0
   -1.5000   -2.5981    0.0000 C   0  0  0  0  0  0  0  0  0  0  0  0
   -3.0000   -2.5981    0.0000 N   0  0  0  0  0  0  0  0  0  0  0  0
   -3.7500   -3.8971    0.0000 C   0  0  0  0  0  0  0  0  0  0  0  0
   -5.2500   -3.8971    0.0000 C   0  0  0  0  0  0  0  0  0  0  0  0
   -6.0000   -2.5981    0.0000 C   0  0  0  0  0  0  0  0  0  0  0  0
   -7.5000   -2.5981    0.0000 C   0  0  0  0  0  0  0  0  0  0  0  0
   -8.2500   -3.8971    0.0000 C   0  0  0  0  0  0  0  0  0  0  0  0
   -7.5000   -5.1962    0.0000 C   0  0  0  0  0  0  0  0  0  0  0  0
   -6.0000   -5.1962    0.0000 C   0  0  0  0  0  0  0  0  0  0  0  0
   -3.7500   -1.2990    0.0000 C   0  0  0  0  0  0  0  0  0  0  0  0
   -3.0000    0.0000    0.0000 C   0  0  0  0  0  0  0  0  0  0  0  0
    0.7500   -3.8971    0.0000 C   0  0  0  0  0  0  0  0  0  0  0  0
    1.5000   -5.1962    0.0000 C   0  0  0  0  0  0  0  0  0  0  0  0
    3.7500   -9.0933    0.0000 N   0  0  0  0  0  0  0  0  0  0  0  0
    3.0000  -10.3923    0.0000 C   0  0  0  0  0  0  0  0  0  0  0  0
    1.5000  -10.3923    0.0000 C   0  0  0  0  0  0  0  0  0  0  0  0
    0.7500  -11.6913    0.0000 C   0  0  0  0  0  0  0  0  0  0  0  0
   -0.7500  -11.6913    0.0000 F   0  0  0  0  0  0  0  0  0  0  0  0
    1.5000  -12.9904    0.0000 C   0  0  0  0  0  0  0  0  0  0  0  0
    3.0000  -12.9904    0.0000 C   0  0  0  0  0  0  0  0  0  0  0  0
    3.7500  -11.6913    0.0000 C   0  0  0  0  0  0  0  0  0  0  0  0
    5.2500  -11.6913    0.0000 F   0  0  0  0  0  0  0  0  0  0  0  0
  1  2  2  0
  2  3  1  0
  3  4  1  0
  4  5  1  0
  5  6  1  0
  6  7  1  0
  7  8  1  0
  8  9  2  0
  9 10  1  0
 10 11  2  0
 11 12  1  0
 12 13  2  0
 13 14  1  0
 14 15  1  0
 15 16  1  0
 16 17  1  0
 17 18  2  0
 18 19  1  0
 19 20  2  0
 20 21  1  0
 21 22  2  0
 15 23  1  0
 23 24  1  0
  7 25  1  0
 25 26  1  0
  2 27  1  0
 27 28  1  0
 28 29  2  0
 29 30  1  0
 30 31  1  0
 30 32  2  0
 32 33  1  0
 33 34  2  0
 34 35  1  0
 26  4  1  0
 34 28  1  0
 13  8  1  0
 22 17  1  0
 24 12  1  0
M  END
>  <Compound_ID>  (788) 
CHEMBL520451

>  <Molecule Name>  (788) 
nan

>  <Molecular Weight>  (788) 
478.55

>  <AlogP>  (788) 
3.07

>  <Smiles>  (788) 
O=C(CN1CCN(c2ncnc3c2CN(Cc2ccccc2)CC3)CC1)Nc1cc(F)ccc1F

>  <Standard Type>  (788) 
Inhibition

>  <Standard Relation>  (788) 
'='

>  <Standard Units>  (788) 
%

>  <Standard Value>  (788) 
10.0

>  <Assay ChEMBL ID>  (788) 
CHEMBL965679

>  <Assay Description>  (788) 
Inhibition of TrkA at 10 uM by HTRF assay relative to control

>  <BAO Format ID>  (788) 
BAO_0000357

>  <BAO Label>  (788) 
single protein format

>  <Assay Organism>  (788) 
None

>  <Target ChEMBL ID>  (788) 
CHEMBL2815

>  <Target Name>  (788) 
Nerve growth factor receptor Trk-A

>  <Target Organism>  (788) 
Homo sapiens

>  <Target Type>  (788) 
SINGLE PROTEIN

>  <Document ChEMBL ID>  (788) 
CHEMBL1150387

>  <Source Description>  (788) 
Scientific Literature

>  <Document Journal>  (788) 
J Med Chem

>  <Document Year>  (788) 
2008.0

>  <Active>  (788) 
0.0

>  <bits>  (788) 
<rdkit.DataStructs.cDataStructs.ExplicitBitVect object at 0x00000159F7933530>

>  <Group>  (788) 
G2

$$$$

     RDKit          2D

 22 25  0  0  0  0  0  0  0  0999 V2000
   -8.3202   -4.8037    0.0000 C   0  0  0  0  0  0  0  0  0  0  0  0
   -7.0211   -4.0537    0.0000 C   0  0  0  0  0  0  0  0  0  0  0  0
   -7.0211   -2.5537    0.0000 C   0  0  0  0  0  0  0  0  0  0  0  0
   -5.7221   -1.8037    0.0000 C   0  0  0  0  0  0  0  0  0  0  0  0
   -4.4231   -2.5537    0.0000 C   0  0  0  0  0  0  0  0  0  0  0  0
   -3.1240   -1.8037    0.0000 C   0  0  0  0  0  0  0  0  0  0  0  0
   -1.7537   -2.4138    0.0000 C   0  0  0  0  0  0  0  0  0  0  0  0
   -0.7500   -1.2990    0.0000 C   0  0  0  0  0  0  0  0  0  0  0  0
    0.7500   -1.2990    0.0000 C   0  0  0  0  0  0  0  0  0  0  0  0
    1.5000   -2.5981    0.0000 N   0  0  0  0  0  0  0  0  0  0  0  0
    3.0000   -2.5981    0.0000 C   0  0  0  0  0  0  0  0  0  0  0  0
    3.7500   -1.2990    0.0000 O   0  0  0  0  0  0  0  0  0  0  0  0
    3.7500   -3.8971    0.0000 C   0  0  0  0  0  0  0  0  0  0  0  0
    5.0490   -4.6471    0.0000 C   0  0  0  0  0  0  0  0  0  0  0  0
    3.7500   -5.3971    0.0000 C   0  0  0  0  0  0  0  0  0  0  0  0
    1.5000    0.0000    0.0000 N   0  0  0  0  0  0  0  0  0  0  0  0
    0.7500    1.2990    0.0000 C   0  0  0  0  0  0  0  0  0  0  0  0
   -0.7500    1.2990    0.0000 N   0  0  0  0  0  0  0  0  0  0  0  0
   -1.5000    0.0000    0.0000 C   0  0  0  0  0  0  0  0  0  0  0  0
   -2.9672   -0.3119    0.0000 O   0  0  0  0  0  0  0  0  0  0  0  0
   -4.4231   -4.0537    0.0000 C   0  0  0  0  0  0  0  0  0  0  0  0
   -5.7221   -4.8037    0.0000 C   0  0  0  0  0  0  0  0  0  0  0  0
  1  2  1  0
  2  3  2  0
  3  4  1  0
  4  5  2  0
  5  6  1  0
  6  7  2  0
  7  8  1  0
  8  9  2  0
  9 10  1  0
 10 11  1  0
 11 12  2  0
 11 13  1  0
 13 14  1  0
 14 15  1  0
  9 16  1  0
 16 17  2  0
 17 18  1  0
 18 19  2  0
 19 20  1  0
  5 21  1  0
 21 22  2  0
 22  2  1  0
 20  6  1  0
 19  8  1  0
 15 13  1  0
M  END
>  <Compound_ID>  (789) 
CHEMBL182283

>  <Molecule Name>  (789) 
GW819230X

>  <Molecular Weight>  (789) 
293.33

>  <AlogP>  (789) 
3.55

>  <Smiles>  (789) 
Cc1ccc(-c2cc3c(NC(=O)C4CC4)ncnc3o2)cc1

>  <Standard Type>  (789) 
Inhibition

>  <Standard Relation>  (789) 
'='

>  <Standard Units>  (789) 
%

>  <Standard Value>  (789) 
1.15

>  <Assay ChEMBL ID>  (789) 
CHEMBL1962185

>  <Assay Description>  (789) 
GSK_PKIS: TRKA mean inhibition at 1 uM [Nanosyn]

>  <BAO Format ID>  (789) 
BAO_0000357

>  <BAO Label>  (789) 
single protein format

>  <Assay Organism>  (789) 
None

>  <Target ChEMBL ID>  (789) 
CHEMBL2815

>  <Target Name>  (789) 
Nerve growth factor receptor Trk-A

>  <Target Organism>  (789) 
Homo sapiens

>  <Target Type>  (789) 
SINGLE PROTEIN

>  <Document ChEMBL ID>  (789) 
CHEMBL1961873

>  <Source Description>  (789) 
GSK Published Kinase Inhibitor Set

>  <Document Journal>  (789) 
nan

>  <Document Year>  (789) 
nan

>  <Active>  (789) 
0.0

>  <bits>  (789) 
<rdkit.DataStructs.cDataStructs.ExplicitBitVect object at 0x00000159F79325E0>

>  <Group>  (789) 
G2

$$$$

     RDKit          2D

 34 38  0  0  0  0  0  0  0  0999 V2000
   -1.6768  -15.1430    0.0000 C   0  0  0  0  0  0  0  0  0  0  0  0
   -1.5200  -13.6512    0.0000 N   0  0  0  0  0  0  0  0  0  0  0  0
   -2.7335  -12.7695    0.0000 C   0  0  0  0  0  0  0  0  0  0  0  0
   -0.1497  -13.0411    0.0000 C   0  0  0  0  0  0  0  0  0  0  0  0
    0.0071  -11.5493    0.0000 C   0  0  0  0  0  0  0  0  0  0  0  0
    1.3774  -10.9392    0.0000 O   0  0  0  0  0  0  0  0  0  0  0  0
    1.5342   -9.4474    0.0000 C   0  0  0  0  0  0  0  0  0  0  0  0
    0.3207   -8.5658    0.0000 C   0  0  0  0  0  0  0  0  0  0  0  0
    0.4775   -7.0740    0.0000 C   0  0  0  0  0  0  0  0  0  0  0  0
    1.8478   -6.4639    0.0000 C   0  0  0  0  0  0  0  0  0  0  0  0
    2.0046   -4.9721    0.0000 C   0  0  0  0  0  0  0  0  0  0  0  0
    0.8899   -3.9684    0.0000 C   0  0  0  0  0  0  0  0  0  0  0  0
    1.5000   -2.5981    0.0000 C   0  0  0  0  0  0  0  0  0  0  0  0
    0.7500   -1.2990    0.0000 C   0  0  0  0  0  0  0  0  0  0  0  0
    1.5000    0.0000    0.0000 C   0  0  0  0  0  0  0  0  0  0  0  0
    0.7500    1.2990    0.0000 C   0  0  0  0  0  0  0  0  0  0  0  0
   -0.7500    1.2990    0.0000 C   0  0  0  0  0  0  0  0  0  0  0  0
   -1.5000    0.0000    0.0000 C   0  0  0  0  0  0  0  0  0  0  0  0
   -0.7500   -1.2990    0.0000 C   0  0  0  0  0  0  0  0  0  0  0  0
   -2.9672    0.3119    0.0000 C   0  0  0  0  0  0  0  0  0  0  0  0
   -3.1240    1.8037    0.0000 C   0  0  0  0  0  0  0  0  0  0  0  0
   -1.7537    2.4138    0.0000 C   0  0  0  0  0  0  0  0  0  0  0  0
   -1.4418    3.8810    0.0000 N   0  0  0  0  0  0  0  0  0  0  0  0
   -2.5565    4.8847    0.0000 O   0  0  0  0  0  0  0  0  0  0  0  0
    2.9918   -2.7549    0.0000 C   0  0  0  0  0  0  0  0  0  0  0  0
    3.9955   -1.6402    0.0000 C   0  0  0  0  0  0  0  0  0  0  0  0
    5.4627   -1.9520    0.0000 C   0  0  0  0  0  0  0  0  0  0  0  0
    6.4664   -0.8373    0.0000 C   0  0  0  0  0  0  0  0  0  0  0  0
    6.0029    0.5893    0.0000 N   0  0  0  0  0  0  0  0  0  0  0  0
    4.5356    0.9012    0.0000 C   0  0  0  0  0  0  0  0  0  0  0  0
    3.5320   -0.2136    0.0000 C   0  0  0  0  0  0  0  0  0  0  0  0
    3.3037   -4.2221    0.0000 O   0  0  0  0  0  0  0  0  0  0  0  0
    3.0613   -7.3456    0.0000 C   0  0  0  0  0  0  0  0  0  0  0  0
    2.9046   -8.8373    0.0000 C   0  0  0  0  0  0  0  0  0  0  0  0
  1  2  1  0
  2  3  1  0
  2  4  1  0
  4  5  1  0
  5  6  1  0
  6  7  1  0
  7  8  2  0
  8  9  1  0
  9 10  2  0
 10 11  1  0
 11 12  2  0
 12 13  1  0
 13 14  1  0
 14 15  2  0
 15 16  1  0
 16 17  2  0
 17 18  1  0
 18 19  2  0
 18 20  1  0
 20 21  1  0
 21 22  1  0
 22 23  2  3
 23 24  1  0
 13 25  2  0
 25 26  1  0
 26 27  2  0
 27 28  1  0
 28 29  2  0
 29 30  1  0
 30 31  2  0
 25 32  1  0
 10 33  1  0
 33 34  2  0
 34  7  1  0
 32 11  1  0
 19 14  1  0
 31 26  1  0
 22 17  1  0
M  END
>  <Compound_ID>  (790) 
CHEMBL1794072

>  <Molecule Name>  (790) 
nan

>  <Molecular Weight>  (790) 
490.0

>  <AlogP>  (790) 
5.74

>  <Smiles>  (790) 
CN(C)CCOc1ccc(-c2cc(-c3ccc4c(c3)CCC4=NO)c(-c3ccncc3)o2)cc1

>  <Standard Type>  (790) 
Inhibition

>  <Standard Relation>  (790) 
'='

>  <Standard Units>  (790) 
%

>  <Standard Value>  (790) 
-2.77

>  <Assay ChEMBL ID>  (790) 
CHEMBL1962185

>  <Assay Description>  (790) 
GSK_PKIS: TRKA mean inhibition at 1 uM [Nanosyn]

>  <BAO Format ID>  (790) 
BAO_0000357

>  <BAO Label>  (790) 
single protein format

>  <Assay Organism>  (790) 
None

>  <Target ChEMBL ID>  (790) 
CHEMBL2815

>  <Target Name>  (790) 
Nerve growth factor receptor Trk-A

>  <Target Organism>  (790) 
Homo sapiens

>  <Target Type>  (790) 
SINGLE PROTEIN

>  <Document ChEMBL ID>  (790) 
CHEMBL1961873

>  <Source Description>  (790) 
GSK Published Kinase Inhibitor Set

>  <Document Journal>  (790) 
nan

>  <Document Year>  (790) 
nan

>  <Active>  (790) 
0.0

>  <bits>  (790) 
<rdkit.DataStructs.cDataStructs.ExplicitBitVect object at 0x00000159F7930970>

>  <Group>  (790) 
G2

$$$$

     RDKit          2D

 40 44  0  0  0  0  0  0  0  0999 V2000
    0.9717   16.4259    0.0000 C   0  0  0  0  0  0  0  0  0  0  0  0
    0.6598   14.9587    0.0000 C   0  0  0  0  0  0  0  0  0  0  0  0
    1.7745   13.9550    0.0000 C   0  0  0  0  0  0  0  0  0  0  0  0
    1.4627   12.4878    0.0000 N   0  0  0  0  0  0  0  0  0  0  0  0
    0.0361   12.0242    0.0000 C   0  0  0  0  0  0  0  0  0  0  0  0
   -0.2758   10.5570    0.0000 C   0  0  0  0  0  0  0  0  0  0  0  0
    0.8389    9.5533    0.0000 C   0  0  0  0  0  0  0  0  0  0  0  0
    0.5271    8.0861    0.0000 O   0  0  0  0  0  0  0  0  0  0  0  0
   -0.8995    7.6226    0.0000 C   0  0  0  0  0  0  0  0  0  0  0  0
   -1.2114    6.1554    0.0000 C   0  0  0  0  0  0  0  0  0  0  0  0
   -2.6380    5.6918    0.0000 C   0  0  0  0  0  0  0  0  0  0  0  0
   -2.9499    4.2246    0.0000 N   0  0  0  0  0  0  0  0  0  0  0  0
   -1.8351    3.2209    0.0000 C   0  0  0  0  0  0  0  0  0  0  0  0
   -0.4086    3.6844    0.0000 N   0  0  0  0  0  0  0  0  0  0  0  0
    0.7062    2.6807    0.0000 C   0  0  0  0  0  0  0  0  0  0  0  0
    2.1328    3.1443    0.0000 N   0  0  0  0  0  0  0  0  0  0  0  0
    2.4446    4.6115    0.0000 C   0  0  0  0  0  0  0  0  0  0  0  0
    1.3299    5.6152    0.0000 C   0  0  0  0  0  0  0  0  0  0  0  0
    1.6418    7.0824    0.0000 C   0  0  0  0  0  0  0  0  0  0  0  0
    3.0684    7.5459    0.0000 C   0  0  0  0  0  0  0  0  0  0  0  0
    4.1831    6.5422    0.0000 C   0  0  0  0  0  0  0  0  0  0  0  0
    5.6097    7.0058    0.0000 F   0  0  0  0  0  0  0  0  0  0  0  0
    3.8712    5.0750    0.0000 C   0  0  0  0  0  0  0  0  0  0  0  0
    4.9859    4.0713    0.0000 C   0  0  0  0  0  0  0  0  0  0  0  0
    6.4125    4.5348    0.0000 N   0  0  0  0  0  0  0  0  0  0  0  0
    4.6741    2.6041    0.0000 O   0  0  0  0  0  0  0  0  0  0  0  0
    0.3943    1.2135    0.0000 C   0  0  0  0  0  0  0  0  0  0  0  0
    1.2760    0.0000    0.0000 C   0  0  0  0  0  0  0  0  0  0  0  0
    0.3943   -1.2135    0.0000 C   0  0  0  0  0  0  0  0  0  0  0  0
   -1.0323   -0.7500    0.0000 N   0  0  0  0  0  0  0  0  0  0  0  0
   -1.0323    0.7500    0.0000 C   0  0  0  0  0  0  0  0  0  0  0  0
   -2.1470    1.7537    0.0000 N   0  0  0  0  0  0  0  0  0  0  0  0
   -3.7527    6.6955    0.0000 C   0  0  0  0  0  0  0  0  0  0  0  0
   -5.1793    6.2320    0.0000 O   0  0  0  0  0  0  0  0  0  0  0  0
   -6.2940    7.2357    0.0000 C   0  0  0  0  0  0  0  0  0  0  0  0
   -3.4408    8.1628    0.0000 C   0  0  0  0  0  0  0  0  0  0  0  0
   -2.0143    8.6263    0.0000 C   0  0  0  0  0  0  0  0  0  0  0  0
   -1.7024   10.0935    0.0000 Cl  0  0  0  0  0  0  0  0  0  0  0  0
    2.2655   10.0169    0.0000 C   0  0  0  0  0  0  0  0  0  0  0  0
    2.5774   11.4841    0.0000 C   0  0  0  0  0  0  0  0  0  0  0  0
  1  2  1  0
  2  3  1  0
  3  4  1  0
  4  5  1  0
  5  6  1  0
  6  7  1  0
  7  8  1  0
  8  9  1  0
  9 10  2  0
 10 11  1  0
 11 12  1  0
 12 13  1  0
 13 14  2  0
 14 15  1  0
 15 16  1  0
 16 17  1  0
 17 18  2  0
 18 19  1  0
 19 20  2  0
 20 21  1  0
 21 22  1  0
 21 23  2  0
 23 24  1  0
 24 25  1  0
 24 26  2  0
 15 27  2  0
 27 28  1  0
 28 29  2  0
 29 30  1  0
 30 31  1  0
 31 32  2  0
 11 33  2  0
 33 34  1  0
 34 35  1  0
 33 36  1  0
 36 37  2  0
 37 38  1  0
  7 39  1  0
 39 40  1  0
 40  4  1  0
 37  9  1  0
 32 13  1  0
 23 17  1  0
 31 27  1  0
M  END
>  <Compound_ID>  (791) 
CHEMBL517171

>  <Molecule Name>  (791) 
GSK-1713088A

>  <Molecular Weight>  (791) 
568.05

>  <AlogP>  (791) 
5.6

>  <Smiles>  (791) 
CCCN1CCC(Oc2cc(Nc3nc(Nc4cccc(F)c4C(N)=O)c4cc[nH]c4n3)c(OC)cc2Cl)CC1

>  <Standard Type>  (791) 
Inhibition

>  <Standard Relation>  (791) 
'='

>  <Standard Units>  (791) 
%

>  <Standard Value>  (791) 
2.22

>  <Assay ChEMBL ID>  (791) 
CHEMBL1962184

>  <Assay Description>  (791) 
GSK_PKIS: TRKA mean inhibition at 0.1 uM [Nanosyn]

>  <BAO Format ID>  (791) 
BAO_0000357

>  <BAO Label>  (791) 
single protein format

>  <Assay Organism>  (791) 
None

>  <Target ChEMBL ID>  (791) 
CHEMBL2815

>  <Target Name>  (791) 
Nerve growth factor receptor Trk-A

>  <Target Organism>  (791) 
Homo sapiens

>  <Target Type>  (791) 
SINGLE PROTEIN

>  <Document ChEMBL ID>  (791) 
CHEMBL1961873

>  <Source Description>  (791) 
GSK Published Kinase Inhibitor Set

>  <Document Journal>  (791) 
nan

>  <Document Year>  (791) 
nan

>  <Active>  (791) 
0.0

>  <bits>  (791) 
<rdkit.DataStructs.cDataStructs.ExplicitBitVect object at 0x00000159F7933760>

>  <Group>  (791) 
G2

$$$$

     RDKit          2D

 36 40  0  0  0  0  0  0  0  0999 V2000
   -3.7548   -2.1855    0.0000 C   0  0  0  0  0  0  0  0  0  0  0  0
   -2.6401   -3.1891    0.0000 C   0  0  0  0  0  0  0  0  0  0  0  0
   -1.2135   -2.7256    0.0000 N   0  0  0  0  0  0  0  0  0  0  0  0
   -0.0000   -3.6073    0.0000 C   0  0  0  0  0  0  0  0  0  0  0  0
   -0.0000   -5.1073    0.0000 C   0  0  0  0  0  0  0  0  0  0  0  0
    1.2135   -5.9890    0.0000 N   0  0  0  0  0  0  0  0  0  0  0  0
    0.7500   -7.4156    0.0000 O   0  0  0  0  0  0  0  0  0  0  0  0
   -0.7500   -7.4156    0.0000 N   0  0  0  0  0  0  0  0  0  0  0  0
   -1.2135   -5.9890    0.0000 C   0  0  0  0  0  0  0  0  0  0  0  0
   -2.6401   -5.5255    0.0000 N   0  0  0  0  0  0  0  0  0  0  0  0
    1.2135   -2.7256    0.0000 N   0  0  0  0  0  0  0  0  0  0  0  0
    0.7500   -1.2990    0.0000 C   0  0  0  0  0  0  0  0  0  0  0  0
    1.5000    0.0000    0.0000 C   0  0  0  0  0  0  0  0  0  0  0  0
    0.7500    1.2990    0.0000 N   0  0  0  0  0  0  0  0  0  0  0  0
   -0.7500    1.2990    0.0000 C   0  0  0  0  0  0  0  0  0  0  0  0
   -1.5000    2.5981    0.0000 O   0  0  0  0  0  0  0  0  0  0  0  0
   -0.7500    3.8971    0.0000 C   0  0  0  0  0  0  0  0  0  0  0  0
    0.7500    3.8971    0.0000 C   0  0  0  0  0  0  0  0  0  0  0  0
    1.5000    5.1962    0.0000 C   0  0  0  0  0  0  0  0  0  0  0  0
    0.7500    6.4952    0.0000 C   0  0  0  0  0  0  0  0  0  0  0  0
   -0.7500    6.4952    0.0000 C   0  0  0  0  0  0  0  0  0  0  0  0
   -1.5000    7.7942    0.0000 N   0  0  0  0  0  0  0  0  0  0  0  0
   -0.7500    9.0933    0.0000 C   0  0  0  0  0  0  0  0  0  0  0  0
    0.7500    9.0933    0.0000 O   0  0  0  0  0  0  0  0  0  0  0  0
   -1.5000   10.3923    0.0000 C   0  0  0  0  0  0  0  0  0  0  0  0
   -0.7500   11.6913    0.0000 C   0  0  0  0  0  0  0  0  0  0  0  0
   -1.5000   12.9904    0.0000 C   0  0  0  0  0  0  0  0  0  0  0  0
   -3.0000   12.9904    0.0000 C   0  0  0  0  0  0  0  0  0  0  0  0
   -3.7500   14.2894    0.0000 N   0  0  0  0  0  0  0  0  0  0  0  0
   -3.0000   15.5885    0.0000 C   0  0  0  0  0  0  0  0  0  0  0  0
   -5.2500   14.2894    0.0000 C   0  0  0  0  0  0  0  0  0  0  0  0
   -3.7500   11.6913    0.0000 C   0  0  0  0  0  0  0  0  0  0  0  0
   -3.0000   10.3923    0.0000 C   0  0  0  0  0  0  0  0  0  0  0  0
   -1.5000    5.1962    0.0000 C   0  0  0  0  0  0  0  0  0  0  0  0
   -1.5000    0.0000    0.0000 C   0  0  0  0  0  0  0  0  0  0  0  0
   -0.7500   -1.2990    0.0000 C   0  0  0  0  0  0  0  0  0  0  0  0
  1  2  1  0
  2  3  1  0
  3  4  1  0
  4  5  1  0
  5  6  2  0
  6  7  1  0
  7  8  1  0
  8  9  2  0
  9 10  1  0
  4 11  2  0
 11 12  1  0
 12 13  2  0
 13 14  1  0
 14 15  2  0
 15 16  1  0
 16 17  1  0
 17 18  2  0
 18 19  1  0
 19 20  2  0
 20 21  1  0
 21 22  1  0
 22 23  1  0
 23 24  2  0
 23 25  1  0
 25 26  2  0
 26 27  1  0
 27 28  2  0
 28 29  1  0
 29 30  1  0
 29 31  1  0
 28 32  1  0
 32 33  2  0
 21 34  2  0
 15 35  1  0
 35 36  2  0
 36  3  1  0
  9  5  1  0
 36 12  1  0
 34 17  1  0
 33 25  1  0
M  END
>  <Compound_ID>  (792) 
CHEMBL220465

>  <Molecule Name>  (792) 
GSK-248233A

>  <Molecular Weight>  (792) 
484.52

>  <AlogP>  (792) 
4.19

>  <Smiles>  (792) 
CCn1c(-c2nonc2N)nc2cnc(Oc3cccc(NC(=O)c4ccc(N(C)C)cc4)c3)cc21

>  <Standard Type>  (792) 
Inhibition

>  <Standard Relation>  (792) 
'='

>  <Standard Units>  (792) 
%

>  <Standard Value>  (792) 
1.37

>  <Assay ChEMBL ID>  (792) 
CHEMBL1962184

>  <Assay Description>  (792) 
GSK_PKIS: TRKA mean inhibition at 0.1 uM [Nanosyn]

>  <BAO Format ID>  (792) 
BAO_0000357

>  <BAO Label>  (792) 
single protein format

>  <Assay Organism>  (792) 
None

>  <Target ChEMBL ID>  (792) 
CHEMBL2815

>  <Target Name>  (792) 
Nerve growth factor receptor Trk-A

>  <Target Organism>  (792) 
Homo sapiens

>  <Target Type>  (792) 
SINGLE PROTEIN

>  <Document ChEMBL ID>  (792) 
CHEMBL1961873

>  <Source Description>  (792) 
GSK Published Kinase Inhibitor Set

>  <Document Journal>  (792) 
nan

>  <Document Year>  (792) 
nan

>  <Active>  (792) 
0.0

>  <bits>  (792) 
<rdkit.DataStructs.cDataStructs.ExplicitBitVect object at 0x00000159F7930F90>

>  <Group>  (792) 
G2

$$$$

     RDKit          2D

 27 30  0  0  0  0  0  0  0  0999 V2000
    3.7500   -1.2990    0.0000 C   0  0  0  0  0  0  0  0  0  0  0  0
    3.0000    0.0000    0.0000 O   0  0  0  0  0  0  0  0  0  0  0  0
    1.5000    0.0000    0.0000 C   0  0  0  0  0  0  0  0  0  0  0  0
    0.7500   -1.2990    0.0000 C   0  0  0  0  0  0  0  0  0  0  0  0
   -0.7500   -1.2990    0.0000 C   0  0  0  0  0  0  0  0  0  0  0  0
   -1.5000    0.0000    0.0000 C   0  0  0  0  0  0  0  0  0  0  0  0
   -3.0000    0.0000    0.0000 N   0  0  0  0  0  0  0  0  0  0  0  0
   -3.7500    1.2990    0.0000 C   0  0  0  0  0  0  0  0  0  0  0  0
   -3.0000    2.5981    0.0000 N   0  0  0  0  0  0  0  0  0  0  0  0
   -1.5000    2.5981    0.0000 C   0  0  0  0  0  0  0  0  0  0  0  0
   -0.7500    3.8971    0.0000 N   0  0  0  0  0  0  0  0  0  0  0  0
   -1.5000    5.1962    0.0000 C   0  0  0  0  0  0  0  0  0  0  0  0
   -0.7500    6.4952    0.0000 C   0  0  0  0  0  0  0  0  0  0  0  0
   -1.5000    7.7942    0.0000 C   0  0  0  0  0  0  0  0  0  0  0  0
   -3.0000    7.7942    0.0000 C   0  0  0  0  0  0  0  0  0  0  0  0
   -3.7500    9.0933    0.0000 O   0  0  0  0  0  0  0  0  0  0  0  0
   -3.0000   10.3923    0.0000 C   0  0  0  0  0  0  0  0  0  0  0  0
   -3.7500   11.6913    0.0000 C   0  0  0  0  0  0  0  0  0  0  0  0
   -3.0000   12.9904    0.0000 C   0  0  0  0  0  0  0  0  0  0  0  0
   -3.7500   14.2894    0.0000 C   0  0  0  0  0  0  0  0  0  0  0  0
   -5.2500   14.2894    0.0000 C   0  0  0  0  0  0  0  0  0  0  0  0
   -6.0000   12.9904    0.0000 C   0  0  0  0  0  0  0  0  0  0  0  0
   -5.2500   11.6913    0.0000 C   0  0  0  0  0  0  0  0  0  0  0  0
   -3.7500    6.4952    0.0000 C   0  0  0  0  0  0  0  0  0  0  0  0
   -3.0000    5.1962    0.0000 C   0  0  0  0  0  0  0  0  0  0  0  0
   -0.7500    1.2990    0.0000 C   0  0  0  0  0  0  0  0  0  0  0  0
    0.7500    1.2990    0.0000 C   0  0  0  0  0  0  0  0  0  0  0  0
  1  2  1  0
  2  3  1  0
  3  4  2  0
  4  5  1  0
  5  6  2  0
  6  7  1  0
  7  8  2  0
  8  9  1  0
  9 10  2  0
 10 11  1  0
 11 12  1  0
 12 13  2  0
 13 14  1  0
 14 15  2  0
 15 16  1  0
 16 17  1  0
 17 18  1  0
 18 19  2  0
 19 20  1  0
 20 21  2  0
 21 22  1  0
 22 23  2  0
 15 24  1  0
 24 25  2  0
 10 26  1  0
 26 27  2  0
 27  3  1  0
 26  6  1  0
 25 12  1  0
 23 18  1  0
M  END
>  <Compound_ID>  (793) 
CHEMBL1909411

>  <Molecule Name>  (793) 
nan

>  <Molecular Weight>  (793) 
393.87

>  <AlogP>  (793) 
4.96

>  <Smiles>  (793) 
COc1ccc2ncnc(Nc3ccc(OCc4ccccc4)cc3)c2c1

>  <Standard Type>  (793) 
Inhibition

>  <Standard Relation>  (793) 
'='

>  <Standard Units>  (793) 
%

>  <Standard Value>  (793) 
0.33

>  <Assay ChEMBL ID>  (793) 
CHEMBL1962184

>  <Assay Description>  (793) 
GSK_PKIS: TRKA mean inhibition at 0.1 uM [Nanosyn]

>  <BAO Format ID>  (793) 
BAO_0000357

>  <BAO Label>  (793) 
single protein format

>  <Assay Organism>  (793) 
None

>  <Target ChEMBL ID>  (793) 
CHEMBL2815

>  <Target Name>  (793) 
Nerve growth factor receptor Trk-A

>  <Target Organism>  (793) 
Homo sapiens

>  <Target Type>  (793) 
SINGLE PROTEIN

>  <Document ChEMBL ID>  (793) 
CHEMBL1961873

>  <Source Description>  (793) 
GSK Published Kinase Inhibitor Set

>  <Document Journal>  (793) 
nan

>  <Document Year>  (793) 
nan

>  <Active>  (793) 
0.0

>  <bits>  (793) 
<rdkit.DataStructs.cDataStructs.ExplicitBitVect object at 0x00000159F7931000>

>  <Group>  (793) 
G2

$$$$

     RDKit          2D

 30 33  0  0  0  0  0  0  0  0999 V2000
   -2.6401   -3.1891    0.0000 C   0  0  0  0  0  0  0  0  0  0  0  0
   -1.2135   -2.7256    0.0000 C   0  0  0  0  0  0  0  0  0  0  0  0
   -0.0000   -3.6073    0.0000 N   0  0  0  0  0  0  0  0  0  0  0  0
    1.2135   -2.7256    0.0000 N   0  0  0  0  0  0  0  0  0  0  0  0
    2.6401   -3.1891    0.0000 C   0  0  0  0  0  0  0  0  0  0  0  0
    0.7500   -1.2990    0.0000 C   0  0  0  0  0  0  0  0  0  0  0  0
    1.5000    0.0000    0.0000 C   0  0  0  0  0  0  0  0  0  0  0  0
    0.7500    1.2990    0.0000 C   0  0  0  0  0  0  0  0  0  0  0  0
    1.5000    2.5981    0.0000 N   0  0  0  0  0  0  0  0  0  0  0  0
    3.0000    2.5981    0.0000 C   0  0  0  0  0  0  0  0  0  0  0  0
    0.7500    3.8971    0.0000 C   0  0  0  0  0  0  0  0  0  0  0  0
    1.5000    5.1962    0.0000 C   0  0  0  0  0  0  0  0  0  0  0  0
    0.7500    6.4952    0.0000 C   0  0  0  0  0  0  0  0  0  0  0  0
   -0.7500    6.4952    0.0000 N   0  0  0  0  0  0  0  0  0  0  0  0
   -1.5000    5.1962    0.0000 C   0  0  0  0  0  0  0  0  0  0  0  0
   -3.0000    5.1962    0.0000 N   0  0  0  0  0  0  0  0  0  0  0  0
   -3.7500    6.4952    0.0000 C   0  0  0  0  0  0  0  0  0  0  0  0
   -3.0000    7.7942    0.0000 C   0  0  0  0  0  0  0  0  0  0  0  0
   -3.7500    9.0933    0.0000 C   0  0  0  0  0  0  0  0  0  0  0  0
   -5.2500    9.0933    0.0000 C   0  0  0  0  0  0  0  0  0  0  0  0
   -6.0000    7.7942    0.0000 C   0  0  0  0  0  0  0  0  0  0  0  0
   -7.5000    7.7942    0.0000 S   0  0  0  0  0  0  0  0  0  0  0  0
   -9.0000    7.7942    0.0000 N   0  0  0  0  0  0  0  0  0  0  0  0
   -7.5000    9.2942    0.0000 O   0  0  0  0  0  0  0  0  0  0  0  0
   -7.5000    6.2942    0.0000 O   0  0  0  0  0  0  0  0  0  0  0  0
   -5.2500    6.4952    0.0000 C   0  0  0  0  0  0  0  0  0  0  0  0
   -0.7500    3.8971    0.0000 N   0  0  0  0  0  0  0  0  0  0  0  0
   -0.7500    1.2990    0.0000 C   0  0  0  0  0  0  0  0  0  0  0  0
   -1.5000    0.0000    0.0000 C   0  0  0  0  0  0  0  0  0  0  0  0
   -0.7500   -1.2990    0.0000 C   0  0  0  0  0  0  0  0  0  0  0  0
  1  2  1  0
  2  3  2  0
  3  4  1  0
  4  5  1  0
  4  6  1  0
  6  7  2  0
  7  8  1  0
  8  9  1  0
  9 10  1  0
  9 11  1  0
 11 12  2  0
 12 13  1  0
 13 14  2  0
 14 15  1  0
 15 16  1  0
 16 17  1  0
 17 18  2  0
 18 19  1  0
 19 20  2  0
 20 21  1  0
 21 22  1  0
 22 23  1  0
 22 24  2  0
 22 25  2  0
 21 26  2  0
 15 27  2  0
  8 28  2  0
 28 29  1  0
 29 30  2  0
 30  2  1  0
 30  6  1  0
 27 11  1  0
 26 17  1  0
M  END
>  <Compound_ID>  (794) 
CHEMBL1794073

>  <Molecule Name>  (794) 
GW770220A

>  <Molecular Weight>  (794) 
459.96

>  <AlogP>  (794) 
2.83

>  <Smiles>  (794) 
Cc1nn(C)c2cc(N(C)c3ccnc(Nc4cccc(S(N)(=O)=O)c4)n3)ccc12

>  <Standard Type>  (794) 
Inhibition

>  <Standard Relation>  (794) 
'='

>  <Standard Units>  (794) 
%

>  <Standard Value>  (794) 
6.3

>  <Assay ChEMBL ID>  (794) 
CHEMBL1962185

>  <Assay Description>  (794) 
GSK_PKIS: TRKA mean inhibition at 1 uM [Nanosyn]

>  <BAO Format ID>  (794) 
BAO_0000357

>  <BAO Label>  (794) 
single protein format

>  <Assay Organism>  (794) 
None

>  <Target ChEMBL ID>  (794) 
CHEMBL2815

>  <Target Name>  (794) 
Nerve growth factor receptor Trk-A

>  <Target Organism>  (794) 
Homo sapiens

>  <Target Type>  (794) 
SINGLE PROTEIN

>  <Document ChEMBL ID>  (794) 
CHEMBL1961873

>  <Source Description>  (794) 
GSK Published Kinase Inhibitor Set

>  <Document Journal>  (794) 
nan

>  <Document Year>  (794) 
nan

>  <Active>  (794) 
0.0

>  <bits>  (794) 
<rdkit.DataStructs.cDataStructs.ExplicitBitVect object at 0x00000159F79319A0>

>  <Group>  (794) 
G2

$$$$

     RDKit          2D

 42 47  0  0  0  0  0  0  0  0999 V2000
   -0.4702  -13.1562    0.0000 O   0  0  0  0  0  0  0  0  0  0  0  0
    1.0216  -12.9994    0.0000 C   0  0  0  0  0  0  0  0  0  0  0  0
    1.6317  -11.6291    0.0000 O   0  0  0  0  0  0  0  0  0  0  0  0
    0.7500  -10.4156    0.0000 C   0  0  0  0  0  0  0  0  0  0  0  0
   -0.7500  -10.4156    0.0000 C   0  0  0  0  0  0  0  0  0  0  0  0
   -1.2135   -8.9890    0.0000 N   0  0  0  0  0  0  0  0  0  0  0  0
    0.0000   -8.1073    0.0000 C   0  0  0  0  0  0  0  0  0  0  0  0
   -0.0000   -6.6073    0.0000 C   0  0  0  0  0  0  0  0  0  0  0  0
   -0.0000   -5.1073    0.0000 C   0  0  0  0  0  0  0  0  0  0  0  0
   -0.0000   -3.6073    0.0000 C   0  0  0  0  0  0  0  0  0  0  0  0
    1.2135   -2.7256    0.0000 C   0  0  0  0  0  0  0  0  0  0  0  0
    0.7500   -1.2990    0.0000 C   0  0  0  0  0  0  0  0  0  0  0  0
    1.5000    0.0000    0.0000 N   0  0  0  0  0  0  0  0  0  0  0  0
    0.7500    1.2990    0.0000 C   0  0  0  0  0  0  0  0  0  0  0  0
   -0.7500    1.2990    0.0000 N   0  0  0  0  0  0  0  0  0  0  0  0
   -1.5000    0.0000    0.0000 C   0  0  0  0  0  0  0  0  0  0  0  0
   -3.0000    0.0000    0.0000 N   0  0  0  0  0  0  0  0  0  0  0  0
   -3.7500    1.2990    0.0000 C   0  0  0  0  0  0  0  0  0  0  0  0
   -3.0000    2.5981    0.0000 C   0  0  0  0  0  0  0  0  0  0  0  0
   -3.7500    3.8971    0.0000 C   0  0  0  0  0  0  0  0  0  0  0  0
   -5.2500    3.8971    0.0000 C   0  0  0  0  0  0  0  0  0  0  0  0
   -6.0000    5.1962    0.0000 O   0  0  0  0  0  0  0  0  0  0  0  0
   -5.2500    6.4952    0.0000 C   0  0  0  0  0  0  0  0  0  0  0  0
   -6.0000    7.7942    0.0000 C   0  0  0  0  0  0  0  0  0  0  0  0
   -5.2500    9.0933    0.0000 C   0  0  0  0  0  0  0  0  0  0  0  0
   -6.0000   10.3923    0.0000 C   0  0  0  0  0  0  0  0  0  0  0  0
   -7.5000   10.3923    0.0000 C   0  0  0  0  0  0  0  0  0  0  0  0
   -8.2500    9.0933    0.0000 C   0  0  0  0  0  0  0  0  0  0  0  0
   -9.7500    9.0933    0.0000 F   0  0  0  0  0  0  0  0  0  0  0  0
   -7.5000    7.7942    0.0000 C   0  0  0  0  0  0  0  0  0  0  0  0
   -6.0000    2.5981    0.0000 C   0  0  0  0  0  0  0  0  0  0  0  0
   -7.5000    2.5981    0.0000 Cl  0  0  0  0  0  0  0  0  0  0  0  0
   -5.2500    1.2990    0.0000 C   0  0  0  0  0  0  0  0  0  0  0  0
   -0.7500   -1.2990    0.0000 C   0  0  0  0  0  0  0  0  0  0  0  0
   -1.2135   -2.7256    0.0000 S   0  0  0  0  0  0  0  0  0  0  0  0
    1.2135   -8.9890    0.0000 C   0  0  0  0  0  0  0  0  0  0  0  0
    1.9033  -14.2129    0.0000 N   0  0  0  0  0  0  0  0  0  0  0  0
    1.2931  -15.5833    0.0000 C   0  0  0  0  0  0  0  0  0  0  0  0
    2.1748  -16.7968    0.0000 C   0  0  0  0  0  0  0  0  0  0  0  0
    3.6666  -16.6400    0.0000 O   0  0  0  0  0  0  0  0  0  0  0  0
    4.2767  -15.2697    0.0000 C   0  0  0  0  0  0  0  0  0  0  0  0
    3.3950  -14.0561    0.0000 C   0  0  0  0  0  0  0  0  0  0  0  0
  1  2  2  0
  2  3  1  0
  4  3  1  1
  4  5  1  0
  5  6  1  0
  6  7  1  0
  7  8  1  6
  8  9  3  0
  9 10  1  0
 10 11  2  0
 11 12  1  0
 12 13  2  0
 13 14  1  0
 14 15  2  0
 15 16  1  0
 16 17  1  0
 17 18  1  0
 18 19  2  0
 19 20  1  0
 20 21  2  0
 21 22  1  0
 22 23  1  0
 23 24  1  0
 24 25  2  0
 25 26  1  0
 26 27  2  0
 27 28  1  0
 28 29  1  0
 28 30  2  0
 21 31  1  0
 31 32  1  0
 31 33  2  0
 16 34  2  0
 34 35  1  0
  7 36  1  0
  2 37  1  0
 37 38  1  0
 38 39  1  0
 39 40  1  0
 40 41  1  0
 41 42  1  0
 36  4  1  0
 42 37  1  0
 35 10  1  0
 34 12  1  0
 33 18  1  0
 30 24  1  0
M  END
>  <Compound_ID>  (795) 
CHEMBL507329

>  <Molecule Name>  (795) 
GW869810X

>  <Molecular Weight>  (795) 
608.1

>  <AlogP>  (795) 
5.36

>  <Smiles>  (795) 
O=C(O[C@H]1CN[C@H](C#Cc2cc3ncnc(Nc4ccc(OCc5cccc(F)c5)c(Cl)c4)c3s2)C1)N1CCOCC1

>  <Standard Type>  (795) 
Inhibition

>  <Standard Relation>  (795) 
'='

>  <Standard Units>  (795) 
%

>  <Standard Value>  (795) 
0.52

>  <Assay ChEMBL ID>  (795) 
CHEMBL1962185

>  <Assay Description>  (795) 
GSK_PKIS: TRKA mean inhibition at 1 uM [Nanosyn]

>  <BAO Format ID>  (795) 
BAO_0000357

>  <BAO Label>  (795) 
single protein format

>  <Assay Organism>  (795) 
None

>  <Target ChEMBL ID>  (795) 
CHEMBL2815

>  <Target Name>  (795) 
Nerve growth factor receptor Trk-A

>  <Target Organism>  (795) 
Homo sapiens

>  <Target Type>  (795) 
SINGLE PROTEIN

>  <Document ChEMBL ID>  (795) 
CHEMBL1961873

>  <Source Description>  (795) 
GSK Published Kinase Inhibitor Set

>  <Document Journal>  (795) 
nan

>  <Document Year>  (795) 
nan

>  <Active>  (795) 
0.0

>  <bits>  (795) 
<rdkit.DataStructs.cDataStructs.ExplicitBitVect object at 0x00000159F7932340>

>  <Group>  (795) 
G2

$$$$

     RDKit          2D

 30 33  0  0  0  0  0  0  0  0999 V2000
    6.4664   -0.8373    0.0000 C   0  0  0  0  0  0  0  0  0  0  0  0
    5.4627   -1.9520    0.0000 N   0  0  0  0  0  0  0  0  0  0  0  0
    5.9262   -3.3786    0.0000 C   0  0  0  0  0  0  0  0  0  0  0  0
    7.3934   -3.6905    0.0000 C   0  0  0  0  0  0  0  0  0  0  0  0
    7.8570   -5.1171    0.0000 C   0  0  0  0  0  0  0  0  0  0  0  0
    9.3242   -5.4289    0.0000 N   0  0  0  0  0  0  0  0  0  0  0  0
   10.4389   -4.4252    0.0000 C   0  0  0  0  0  0  0  0  0  0  0  0
   11.7379   -5.1752    0.0000 C   0  0  0  0  0  0  0  0  0  0  0  0
   11.4261   -6.6424    0.0000 N   0  0  0  0  0  0  0  0  0  0  0  0
    9.9343   -6.7992    0.0000 C   0  0  0  0  0  0  0  0  0  0  0  0
    3.9955   -1.6402    0.0000 C   0  0  0  0  0  0  0  0  0  0  0  0
    3.5320   -0.2136    0.0000 O   0  0  0  0  0  0  0  0  0  0  0  0
    2.9918   -2.7549    0.0000 C   0  0  0  0  0  0  0  0  0  0  0  0
    3.3037   -4.2221    0.0000 C   0  0  0  0  0  0  0  0  0  0  0  0
    2.0046   -4.9721    0.0000 C   0  0  0  0  0  0  0  0  0  0  0  0
    0.8899   -3.9684    0.0000 C   0  0  0  0  0  0  0  0  0  0  0  0
    1.5000   -2.5981    0.0000 N   0  0  0  0  0  0  0  0  0  0  0  0
    0.7500   -1.2990    0.0000 C   0  0  0  0  0  0  0  0  0  0  0  0
    1.5000    0.0000    0.0000 N   0  0  0  0  0  0  0  0  0  0  0  0
    0.7500    1.2990    0.0000 C   0  0  0  0  0  0  0  0  0  0  0  0
   -0.7500    1.2990    0.0000 C   0  0  0  0  0  0  0  0  0  0  0  0
   -1.5000    0.0000    0.0000 C   0  0  0  0  0  0  0  0  0  0  0  0
   -3.0000    0.0000    0.0000 N   0  0  0  0  0  0  0  0  0  0  0  0
   -3.7500    1.2990    0.0000 C   0  0  0  0  0  0  0  0  0  0  0  0
   -3.0000    2.5981    0.0000 C   0  0  0  0  0  0  0  0  0  0  0  0
   -3.7500    3.8971    0.0000 C   0  0  0  0  0  0  0  0  0  0  0  0
   -5.2500    3.8971    0.0000 C   0  0  0  0  0  0  0  0  0  0  0  0
   -6.0000    2.5981    0.0000 C   0  0  0  0  0  0  0  0  0  0  0  0
   -5.2500    1.2990    0.0000 C   0  0  0  0  0  0  0  0  0  0  0  0
   -0.7500   -1.2990    0.0000 N   0  0  0  0  0  0  0  0  0  0  0  0
  1  2  1  0
  2  3  1  0
  3  4  1  0
  4  5  1  0
  5  6  1  0
  6  7  1  0
  7  8  2  0
  8  9  1  0
  9 10  2  0
  2 11  1  0
 11 12  2  0
 13 11  1  6
 13 14  1  0
 14 15  1  0
 15 16  1  0
 16 17  1  0
 17 18  1  0
 18 19  2  0
 19 20  1  0
 20 21  2  0
 21 22  1  0
 22 23  1  0
 23 24  1  0
 24 25  2  0
 25 26  1  0
 26 27  2  0
 27 28  1  0
 28 29  2  0
 22 30  2  0
 10  6  1  0
 17 13  1  0
 30 18  1  0
 29 24  1  0
M  END
>  <Compound_ID>  (796) 
CHEMBL519658

>  <Molecule Name>  (796) 
nan

>  <Molecular Weight>  (796) 
405.51

>  <AlogP>  (796) 
2.93

>  <Smiles>  (796) 
CN(CCCn1ccnc1)C(=O)[C@@H]1CCCN1c1nccc(Nc2ccccc2)n1

>  <Standard Type>  (796) 
Inhibition

>  <Standard Relation>  (796) 
'='

>  <Standard Units>  (796) 
%

>  <Standard Value>  (796) 
11.0

>  <Assay ChEMBL ID>  (796) 
CHEMBL965679

>  <Assay Description>  (796) 
Inhibition of TrkA at 10 uM by HTRF assay relative to control

>  <BAO Format ID>  (796) 
BAO_0000357

>  <BAO Label>  (796) 
single protein format

>  <Assay Organism>  (796) 
None

>  <Target ChEMBL ID>  (796) 
CHEMBL2815

>  <Target Name>  (796) 
Nerve growth factor receptor Trk-A

>  <Target Organism>  (796) 
Homo sapiens

>  <Target Type>  (796) 
SINGLE PROTEIN

>  <Document ChEMBL ID>  (796) 
CHEMBL1150387

>  <Source Description>  (796) 
Scientific Literature

>  <Document Journal>  (796) 
J Med Chem

>  <Document Year>  (796) 
2008.0

>  <Active>  (796) 
0.0

>  <bits>  (796) 
<rdkit.DataStructs.cDataStructs.ExplicitBitVect object at 0x00000159F7933F40>

>  <Group>  (796) 
G2

$$$$

     RDKit          2D

 23 25  0  0  0  0  0  0  0  0999 V2000
    3.0000    0.0000    0.0000 C   0  0  0  0  0  0  0  0  0  0  0  0
    1.5000    0.0000    0.0000 C   0  0  0  0  0  0  0  0  0  0  0  0
    0.7500   -1.2990    0.0000 C   0  0  0  0  0  0  0  0  0  0  0  0
   -0.7500   -1.2990    0.0000 C   0  0  0  0  0  0  0  0  0  0  0  0
   -1.5000    0.0000    0.0000 C   0  0  0  0  0  0  0  0  0  0  0  0
   -0.7500    1.2990    0.0000 C   0  0  0  0  0  0  0  0  0  0  0  0
    0.7500    1.2990    0.0000 C   0  0  0  0  0  0  0  0  0  0  0  0
   -1.7537    2.4138    0.0000 C   0  0  0  0  0  0  0  0  0  0  0  0
   -1.4418    3.8810    0.0000 N   0  0  0  0  0  0  0  0  0  0  0  0
   -2.5565    4.8847    0.0000 N   0  0  0  0  0  0  0  0  0  0  0  0
   -2.2447    6.3519    0.0000 C   0  0  0  0  0  0  0  0  0  0  0  0
   -0.8181    6.8154    0.0000 C   0  0  0  0  0  0  0  0  0  0  0  0
   -0.5062    8.2826    0.0000 C   0  0  0  0  0  0  0  0  0  0  0  0
   -1.6209    9.2863    0.0000 C   0  0  0  0  0  0  0  0  0  0  0  0
   -1.3091   10.7536    0.0000 S   0  0  0  0  0  0  0  0  0  0  0  0
   -0.9972   12.2208    0.0000 N   0  0  0  0  0  0  0  0  0  0  0  0
    0.1581   10.4417    0.0000 O   0  0  0  0  0  0  0  0  0  0  0  0
   -2.7763   11.0654    0.0000 O   0  0  0  0  0  0  0  0  0  0  0  0
   -3.0475    8.8228    0.0000 C   0  0  0  0  0  0  0  0  0  0  0  0
   -3.3594    7.3556    0.0000 C   0  0  0  0  0  0  0  0  0  0  0  0
   -3.1240    1.8037    0.0000 C   0  0  0  0  0  0  0  0  0  0  0  0
   -4.4231    2.5537    0.0000 O   0  0  0  0  0  0  0  0  0  0  0  0
   -2.9672    0.3119    0.0000 N   0  0  0  0  0  0  0  0  0  0  0  0
  1  2  1  0
  2  3  2  0
  3  4  1  0
  4  5  2  0
  5  6  1  0
  6  7  2  0
  6  8  1  0
  8  9  2  0
  9 10  1  0
 10 11  1  0
 11 12  2  0
 12 13  1  0
 13 14  2  0
 14 15  1  0
 15 16  1  0
 15 17  2  0
 15 18  2  0
 14 19  1  0
 19 20  2  0
  8 21  1  0
 21 22  2  0
 21 23  1  0
  7  2  1  0
 20 11  1  0
 23  5  1  0
M  END
>  <Compound_ID>  (797) 
CHEMBL271843

>  <Molecule Name>  (797) 
GW275944X

>  <Molecular Weight>  (797) 
330.37

>  <AlogP>  (797) 
1.41

>  <Smiles>  (797) 
Cc1ccc2c(c1)/C(=N/Nc1ccc(S(N)(=O)=O)cc1)C(=O)N2

>  <Standard Type>  (797) 
Inhibition

>  <Standard Relation>  (797) 
'='

>  <Standard Units>  (797) 
%

>  <Standard Value>  (797) 
11.83

>  <Assay ChEMBL ID>  (797) 
CHEMBL1962185

>  <Assay Description>  (797) 
GSK_PKIS: TRKA mean inhibition at 1 uM [Nanosyn]

>  <BAO Format ID>  (797) 
BAO_0000357

>  <BAO Label>  (797) 
single protein format

>  <Assay Organism>  (797) 
None

>  <Target ChEMBL ID>  (797) 
CHEMBL2815

>  <Target Name>  (797) 
Nerve growth factor receptor Trk-A

>  <Target Organism>  (797) 
Homo sapiens

>  <Target Type>  (797) 
SINGLE PROTEIN

>  <Document ChEMBL ID>  (797) 
CHEMBL1961873

>  <Source Description>  (797) 
GSK Published Kinase Inhibitor Set

>  <Document Journal>  (797) 
nan

>  <Document Year>  (797) 
nan

>  <Active>  (797) 
0.0

>  <bits>  (797) 
<rdkit.DataStructs.cDataStructs.ExplicitBitVect object at 0x00000159F7932A40>

>  <Group>  (797) 
G2

$$$$

     RDKit          2D

 29 32  0  0  0  0  0  0  0  0999 V2000
    3.0000    0.0000    0.0000 C   0  0  0  0  0  0  0  0  0  0  0  0
    1.5000    0.0000    0.0000 C   0  0  0  0  0  0  0  0  0  0  0  0
    0.7500   -1.2990    0.0000 C   0  0  0  0  0  0  0  0  0  0  0  0
   -0.7500   -1.2990    0.0000 C   0  0  0  0  0  0  0  0  0  0  0  0
   -1.5000    0.0000    0.0000 C   0  0  0  0  0  0  0  0  0  0  0  0
   -0.7500    1.2990    0.0000 C   0  0  0  0  0  0  0  0  0  0  0  0
   -1.5000    2.5981    0.0000 O   0  0  0  0  0  0  0  0  0  0  0  0
   -0.7500    3.8971    0.0000 C   0  0  0  0  0  0  0  0  0  0  0  0
    0.7500    3.8971    0.0000 C   0  0  0  0  0  0  0  0  0  0  0  0
    1.5000    5.1962    0.0000 C   0  0  0  0  0  0  0  0  0  0  0  0
    0.7500    6.4952    0.0000 N   0  0  0  0  0  0  0  0  0  0  0  0
   -0.7500    6.4952    0.0000 C   0  0  0  0  0  0  0  0  0  0  0  0
   -1.5000    7.7942    0.0000 N   0  0  0  0  0  0  0  0  0  0  0  0
   -0.7500    9.0933    0.0000 C   0  0  0  0  0  0  0  0  0  0  0  0
   -1.5000   10.3923    0.0000 C   0  0  0  0  0  0  0  0  0  0  0  0
   -3.0000   10.3923    0.0000 N   0  0  0  0  0  0  0  0  0  0  0  0
   -3.7500   11.6913    0.0000 C   0  0  0  0  0  0  0  0  0  0  0  0
   -5.2500   11.6913    0.0000 O   0  0  0  0  0  0  0  0  0  0  0  0
   -3.0000   12.9904    0.0000 C   0  0  0  0  0  0  0  0  0  0  0  0
   -3.6101   14.3607    0.0000 C   0  0  0  0  0  0  0  0  0  0  0  0
   -5.0773   14.6726    0.0000 C   0  0  0  0  0  0  0  0  0  0  0  0
   -2.4954   15.3644    0.0000 N   0  0  0  0  0  0  0  0  0  0  0  0
   -1.1963   14.6144    0.0000 O   0  0  0  0  0  0  0  0  0  0  0  0
   -1.5082   13.1472    0.0000 C   0  0  0  0  0  0  0  0  0  0  0  0
   -0.5045   12.0325    0.0000 C   0  0  0  0  0  0  0  0  0  0  0  0
   -3.7500    9.0933    0.0000 C   0  0  0  0  0  0  0  0  0  0  0  0
   -3.0000    7.7942    0.0000 C   0  0  0  0  0  0  0  0  0  0  0  0
   -1.5000    5.1962    0.0000 N   0  0  0  0  0  0  0  0  0  0  0  0
    0.7500    1.2990    0.0000 C   0  0  0  0  0  0  0  0  0  0  0  0
  1  2  1  0
  2  3  2  0
  3  4  1  0
  4  5  2  0
  5  6  1  0
  6  7  1  0
  7  8  1  0
  8  9  2  0
  9 10  1  0
 10 11  2  0
 11 12  1  0
 12 13  1  0
 13 14  1  0
 14 15  1  0
 15 16  1  0
 16 17  1  0
 17 18  2  0
 17 19  1  0
 19 20  1  0
 20 21  1  0
 20 22  2  0
 22 23  1  0
 23 24  1  0
 24 25  1  0
 16 26  1  0
 26 27  1  0
 12 28  2  0
  6 29  2  0
 29  2  1  0
 28  8  1  0
 27 13  1  0
 24 19  2  0
M  END
>  <Compound_ID>  (798) 
CHEMBL482721

>  <Molecule Name>  (798) 
nan

>  <Molecular Weight>  (798) 
393.45

>  <AlogP>  (798) 
3.14

>  <Smiles>  (798) 
Cc1cccc(Oc2ccnc(N3CCN(C(=O)c4c(C)noc4C)CC3)n2)c1

>  <Standard Type>  (798) 
Inhibition

>  <Standard Relation>  (798) 
'='

>  <Standard Units>  (798) 
%

>  <Standard Value>  (798) 
8.0

>  <Assay ChEMBL ID>  (798) 
CHEMBL965679

>  <Assay Description>  (798) 
Inhibition of TrkA at 10 uM by HTRF assay relative to control

>  <BAO Format ID>  (798) 
BAO_0000357

>  <BAO Label>  (798) 
single protein format

>  <Assay Organism>  (798) 
None

>  <Target ChEMBL ID>  (798) 
CHEMBL2815

>  <Target Name>  (798) 
Nerve growth factor receptor Trk-A

>  <Target Organism>  (798) 
Homo sapiens

>  <Target Type>  (798) 
SINGLE PROTEIN

>  <Document ChEMBL ID>  (798) 
CHEMBL1150387

>  <Source Description>  (798) 
Scientific Literature

>  <Document Journal>  (798) 
J Med Chem

>  <Document Year>  (798) 
2008.0

>  <Active>  (798) 
0.0

>  <bits>  (798) 
<rdkit.DataStructs.cDataStructs.ExplicitBitVect object at 0x00000159F7930C80>

>  <Group>  (798) 
G2

$$$$

     RDKit          2D

 17 18  0  0  0  0  0  0  0  0999 V2000
    3.7500   -1.2990    0.0000 C   0  0  0  0  0  0  0  0  0  0  0  0
    3.0000    0.0000    0.0000 O   0  0  0  0  0  0  0  0  0  0  0  0
    1.5000    0.0000    0.0000 C   0  0  0  0  0  0  0  0  0  0  0  0
    0.7500   -1.2990    0.0000 C   0  0  0  0  0  0  0  0  0  0  0  0
   -0.7500   -1.2990    0.0000 C   0  0  0  0  0  0  0  0  0  0  0  0
   -1.5000    0.0000    0.0000 C   0  0  0  0  0  0  0  0  0  0  0  0
   -3.0000    0.0000    0.0000 C   0  0  0  0  0  0  0  0  0  0  0  0
   -3.7500    1.2990    0.0000 C   0  0  0  0  0  0  0  0  0  0  0  0
   -5.2500    1.2990    0.0000 C   0  0  0  0  0  0  0  0  0  0  0  0
   -6.0000    0.0000    0.0000 N   0  0  0  0  0  0  0  0  0  0  0  0
   -5.2500   -1.2990    0.0000 C   0  0  0  0  0  0  0  0  0  0  0  0
   -3.7500   -1.2990    0.0000 C   0  0  0  0  0  0  0  0  0  0  0  0
   -0.7500    1.2990    0.0000 C   0  0  0  0  0  0  0  0  0  0  0  0
    0.7500    1.2990    0.0000 C   0  0  0  0  0  0  0  0  0  0  0  0
    1.5000    2.5981    0.0000 C   0  0  0  0  0  0  0  0  0  0  0  0
    3.0000    2.5981    0.0000 N   0  0  0  0  0  0  0  0  0  0  0  0
    0.7500    3.8971    0.0000 O   0  0  0  0  0  0  0  0  0  0  0  0
  1  2  1  0
  2  3  1  0
  3  4  2  0
  4  5  1  0
  5  6  2  0
  6  7  1  0
  7  8  2  0
  8  9  1  0
  9 10  2  0
 10 11  1  0
 11 12  2  0
  6 13  1  0
 13 14  2  0
 14 15  1  0
 15 16  1  0
 15 17  2  0
 14  3  1  0
 12  7  1  0
M  END
>  <Compound_ID>  (799) 
CHEMBL231013

>  <Molecule Name>  (799) 
GSK-605714A

>  <Molecular Weight>  (799) 
228.25

>  <AlogP>  (799) 
1.86

>  <Smiles>  (799) 
COc1ccc(-c2ccncc2)cc1C(N)=O

>  <Standard Type>  (799) 
Inhibition

>  <Standard Relation>  (799) 
'='

>  <Standard Units>  (799) 
%

>  <Standard Value>  (799) 
1.19

>  <Assay ChEMBL ID>  (799) 
CHEMBL1962184

>  <Assay Description>  (799) 
GSK_PKIS: TRKA mean inhibition at 0.1 uM [Nanosyn]

>  <BAO Format ID>  (799) 
BAO_0000357

>  <BAO Label>  (799) 
single protein format

>  <Assay Organism>  (799) 
None

>  <Target ChEMBL ID>  (799) 
CHEMBL2815

>  <Target Name>  (799) 
Nerve growth factor receptor Trk-A

>  <Target Organism>  (799) 
Homo sapiens

>  <Target Type>  (799) 
SINGLE PROTEIN

>  <Document ChEMBL ID>  (799) 
CHEMBL1961873

>  <Source Description>  (799) 
GSK Published Kinase Inhibitor Set

>  <Document Journal>  (799) 
nan

>  <Document Year>  (799) 
nan

>  <Active>  (799) 
0.0

>  <bits>  (799) 
<rdkit.DataStructs.cDataStructs.ExplicitBitVect object at 0x00000159F7933A70>

>  <Group>  (799) 
G2

$$$$

     RDKit          2D

 30 34  0  0  0  0  0  0  0  0999 V2000
    3.7500   -1.2990    0.0000 C   0  0  0  0  0  0  0  0  0  0  0  0
    3.0000    0.0000    0.0000 O   0  0  0  0  0  0  0  0  0  0  0  0
    1.5000    0.0000    0.0000 C   0  0  0  0  0  0  0  0  0  0  0  0
    0.7500   -1.2990    0.0000 C   0  0  0  0  0  0  0  0  0  0  0  0
   -0.7500   -1.2990    0.0000 C   0  0  0  0  0  0  0  0  0  0  0  0
   -1.5000    0.0000    0.0000 C   0  0  0  0  0  0  0  0  0  0  0  0
   -0.7500    1.2990    0.0000 C   0  0  0  0  0  0  0  0  0  0  0  0
    0.7500    1.2990    0.0000 C   0  0  0  0  0  0  0  0  0  0  0  0
    1.5000    2.5981    0.0000 C   0  0  0  0  0  0  0  0  0  0  0  0
    3.0000    2.5981    0.0000 C   0  0  0  0  0  0  0  0  0  0  0  0
    0.7500    3.8971    0.0000 N   0  0  0  0  0  0  0  0  0  0  0  0
    1.5000    5.1962    0.0000 C   0  0  0  0  0  0  0  0  0  0  0  0
    0.7500    6.4952    0.0000 C   0  0  0  0  0  0  0  0  0  0  0  0
   -0.7500    6.4952    0.0000 N   0  0  0  0  0  0  0  0  0  0  0  0
   -1.5000    5.1962    0.0000 C   0  0  0  0  0  0  0  0  0  0  0  0
   -0.7500    3.8971    0.0000 C   0  0  0  0  0  0  0  0  0  0  0  0
   -1.7537    2.4138    0.0000 O   0  0  0  0  0  0  0  0  0  0  0  0
   -3.1240    1.8037    0.0000 C   0  0  0  0  0  0  0  0  0  0  0  0
   -4.4231    2.5537    0.0000 C   0  0  0  0  0  0  0  0  0  0  0  0
   -4.4231    4.0537    0.0000 C   0  0  0  0  0  0  0  0  0  0  0  0
   -3.2095    4.9353    0.0000 N   0  0  0  0  0  0  0  0  0  0  0  0
   -3.6731    6.3619    0.0000 N   0  0  0  0  0  0  0  0  0  0  0  0
   -5.1731    6.3619    0.0000 C   0  0  0  0  0  0  0  0  0  0  0  0
   -6.1767    7.4766    0.0000 N   0  0  0  0  0  0  0  0  0  0  0  0
   -7.6440    7.1648    0.0000 C   0  0  0  0  0  0  0  0  0  0  0  0
   -8.1075    5.7382    0.0000 C   0  0  0  0  0  0  0  0  0  0  0  0
   -7.1038    4.6235    0.0000 C   0  0  0  0  0  0  0  0  0  0  0  0
   -5.6366    4.9353    0.0000 C   0  0  0  0  0  0  0  0  0  0  0  0
   -2.9672    0.3119    0.0000 C   0  0  0  0  0  0  0  0  0  0  0  0
   -4.0819   -0.6918    0.0000 O   0  0  0  0  0  0  0  0  0  0  0  0
  1  2  1  0
  2  3  1  0
  3  4  2  0
  4  5  1  0
  5  6  2  0
  6  7  1  0
  7  8  2  0
  8  9  1  0
  9 10  1  0
  9 11  1  0
 11 12  1  0
 12 13  1  0
 13 14  1  0
 14 15  1  0
 15 16  1  0
  7 17  1  0
 17 18  1  0
 18 19  2  0
 19 20  1  0
 20 21  2  0
 21 22  1  0
 22 23  1  0
 23 24  2  0
 24 25  1  0
 25 26  2  0
 26 27  1  0
 27 28  2  0
 18 29  1  0
 29 30  2  0
  8  3  1  0
 16 11  1  0
 28 20  1  0
 29  6  1  0
 28 23  1  0
M  END
>  <Compound_ID>  (800) 
CHEMBL3735890

>  <Molecule Name>  (800) 
nan

>  <Molecular Weight>  (800) 
405.46

>  <AlogP>  (800) 
2.55

>  <Smiles>  (800) 
COc1ccc2c(c1C(C)N1CCNCC1)O/C(=C\c1n[nH]c3ncccc13)C2=O

>  <Standard Type>  (800) 
Inhibition

>  <Standard Relation>  (800) 
'='

>  <Standard Units>  (800) 
%

>  <Standard Value>  (800) 
10.3

>  <Assay ChEMBL ID>  (800) 
CHEMBL3738546

>  <Assay Description>  (800) 
Inhibition of TRKA (unknown origin) at 200 nM by electrophoretic mobility shift assay

>  <BAO Format ID>  (800) 
BAO_0000357

>  <BAO Label>  (800) 
single protein format

>  <Assay Organism>  (800) 
Homo sapiens

>  <Target ChEMBL ID>  (800) 
CHEMBL2815

>  <Target Name>  (800) 
Nerve growth factor receptor Trk-A

>  <Target Organism>  (800) 
Homo sapiens

>  <Target Type>  (800) 
SINGLE PROTEIN

>  <Document ChEMBL ID>  (800) 
CHEMBL3734671

>  <Source Description>  (800) 
Scientific Literature

>  <Document Journal>  (800) 
Bioorg Med Chem Lett

>  <Document Year>  (800) 
2015.0

>  <Active>  (800) 
0.0

>  <bits>  (800) 
<rdkit.DataStructs.cDataStructs.ExplicitBitVect object at 0x00000159F79329D0>

>  <Group>  (800) 
G2

$$$$

     RDKit          2D

 27 30  0  0  0  0  0  0  0  0999 V2000
    3.0000   -2.5981    0.0000 O   0  0  0  0  0  0  0  0  0  0  0  0
    1.5000   -2.5981    0.0000 C   0  0  0  0  0  0  0  0  0  0  0  0
    0.7500   -1.2990    0.0000 C   0  0  0  0  0  0  0  0  0  0  0  0
    1.5000    0.0000    0.0000 C   0  0  0  0  0  0  0  0  0  0  0  0
    0.7500    1.2990    0.0000 C   0  0  0  0  0  0  0  0  0  0  0  0
   -0.7500    1.2990    0.0000 N   0  0  0  0  0  0  0  0  0  0  0  0
   -1.5000    2.5981    0.0000 C   0  0  0  0  0  0  0  0  0  0  0  0
   -0.7500    3.8971    0.0000 N   0  0  0  0  0  0  0  0  0  0  0  0
   -1.5000    5.1962    0.0000 C   0  0  0  0  0  0  0  0  0  0  0  0
   -3.0000    5.1962    0.0000 C   0  0  0  0  0  0  0  0  0  0  0  0
   -3.7500    3.8971    0.0000 C   0  0  0  0  0  0  0  0  0  0  0  0
   -5.2500    3.8971    0.0000 N   0  0  0  0  0  0  0  0  0  0  0  0
   -6.0000    5.1962    0.0000 C   0  0  0  0  0  0  0  0  0  0  0  0
   -5.2500    6.4952    0.0000 C   0  0  0  0  0  0  0  0  0  0  0  0
   -6.0000    7.7942    0.0000 C   0  0  0  0  0  0  0  0  0  0  0  0
   -7.5000    7.7942    0.0000 C   0  0  0  0  0  0  0  0  0  0  0  0
   -8.2500    6.4952    0.0000 C   0  0  0  0  0  0  0  0  0  0  0  0
   -7.5000    5.1962    0.0000 C   0  0  0  0  0  0  0  0  0  0  0  0
   -3.0000    2.5981    0.0000 N   0  0  0  0  0  0  0  0  0  0  0  0
   -1.5000    0.0000    0.0000 C   0  0  0  0  0  0  0  0  0  0  0  0
   -0.7500   -1.2990    0.0000 C   0  0  0  0  0  0  0  0  0  0  0  0
    0.7500   -3.8971    0.0000 N   0  0  0  0  0  0  0  0  0  0  0  0
    1.3601   -5.2674    0.0000 C   0  0  0  0  0  0  0  0  0  0  0  0
    0.2454   -6.2711    0.0000 C   0  0  0  0  0  0  0  0  0  0  0  0
   -1.0537   -5.5211    0.0000 C   0  0  0  0  0  0  0  0  0  0  0  0
   -2.4240   -6.1312    0.0000 O   0  0  0  0  0  0  0  0  0  0  0  0
   -0.7418   -4.0539    0.0000 C   0  0  0  0  0  0  0  0  0  0  0  0
  1  2  2  0
  2  3  1  0
  3  4  1  0
  4  5  1  0
  5  6  1  0
  6  7  1  0
  7  8  2  0
  8  9  1  0
  9 10  2  0
 10 11  1  0
 11 12  1  0
 12 13  1  0
 13 14  2  0
 14 15  1  0
 15 16  2  0
 16 17  1  0
 17 18  2  0
 11 19  2  0
  6 20  1  0
 20 21  1  0
  2 22  1  0
 22 23  1  0
 23 24  1  0
 24 25  1  0
 25 26  1  1
 25 27  1  0
 21  3  1  0
 27 22  1  0
 19  7  1  0
 18 13  1  0
M  END
>  <Compound_ID>  (801) 
CHEMBL484706

>  <Molecule Name>  (801) 
nan

>  <Molecular Weight>  (801) 
367.45

>  <AlogP>  (801) 
2.03

>  <Smiles>  (801) 
O=C(C1CCN(c2nccc(Nc3ccccc3)n2)CC1)N1CC[C@@H](O)C1

>  <Standard Type>  (801) 
Inhibition

>  <Standard Relation>  (801) 
'='

>  <Standard Units>  (801) 
%

>  <Standard Value>  (801) 
12.0

>  <Assay ChEMBL ID>  (801) 
CHEMBL965679

>  <Assay Description>  (801) 
Inhibition of TrkA at 10 uM by HTRF assay relative to control

>  <BAO Format ID>  (801) 
BAO_0000357

>  <BAO Label>  (801) 
single protein format

>  <Assay Organism>  (801) 
None

>  <Target ChEMBL ID>  (801) 
CHEMBL2815

>  <Target Name>  (801) 
Nerve growth factor receptor Trk-A

>  <Target Organism>  (801) 
Homo sapiens

>  <Target Type>  (801) 
SINGLE PROTEIN

>  <Document ChEMBL ID>  (801) 
CHEMBL1150387

>  <Source Description>  (801) 
Scientific Literature

>  <Document Journal>  (801) 
J Med Chem

>  <Document Year>  (801) 
2008.0

>  <Active>  (801) 
0.0

>  <bits>  (801) 
<rdkit.DataStructs.cDataStructs.ExplicitBitVect object at 0x00000159F7932570>

>  <Group>  (801) 
G2

$$$$

     RDKit          2D

 27 30  0  0  0  0  0  0  0  0999 V2000
  -13.3148   -1.8752    0.0000 C   0  0  0  0  0  0  0  0  0  0  0  0
  -11.8882   -2.3387    0.0000 O   0  0  0  0  0  0  0  0  0  0  0  0
  -10.7735   -1.3350    0.0000 C   0  0  0  0  0  0  0  0  0  0  0  0
  -11.0854    0.1322    0.0000 C   0  0  0  0  0  0  0  0  0  0  0  0
   -9.9707    1.1359    0.0000 C   0  0  0  0  0  0  0  0  0  0  0  0
   -8.5441    0.6723    0.0000 C   0  0  0  0  0  0  0  0  0  0  0  0
   -8.2322   -0.7949    0.0000 C   0  0  0  0  0  0  0  0  0  0  0  0
   -6.8056   -1.2584    0.0000 C   0  0  0  0  0  0  0  0  0  0  0  0
   -6.4937   -2.7256    0.0000 O   0  0  0  0  0  0  0  0  0  0  0  0
   -5.0672   -3.1891    0.0000 C   0  0  0  0  0  0  0  0  0  0  0  0
   -3.8536   -2.3075    0.0000 C   0  0  0  0  0  0  0  0  0  0  0  0
   -2.6401   -3.1891    0.0000 C   0  0  0  0  0  0  0  0  0  0  0  0
   -1.2135   -2.7256    0.0000 N   0  0  0  0  0  0  0  0  0  0  0  0
   -0.0000   -3.6073    0.0000 C   0  0  0  0  0  0  0  0  0  0  0  0
    1.2135   -2.7256    0.0000 N   0  0  0  0  0  0  0  0  0  0  0  0
    0.7500   -1.2990    0.0000 C   0  0  0  0  0  0  0  0  0  0  0  0
    1.5000    0.0000    0.0000 C   0  0  0  0  0  0  0  0  0  0  0  0
    0.7500    1.2990    0.0000 C   0  0  0  0  0  0  0  0  0  0  0  0
   -0.7500    1.2990    0.0000 C   0  0  0  0  0  0  0  0  0  0  0  0
   -1.5000    0.0000    0.0000 C   0  0  0  0  0  0  0  0  0  0  0  0
   -0.7500   -1.2990    0.0000 C   0  0  0  0  0  0  0  0  0  0  0  0
   -3.1036   -4.6157    0.0000 S   0  0  0  0  0  0  0  0  0  0  0  0
   -4.6036   -4.6157    0.0000 C   0  0  0  0  0  0  0  0  0  0  0  0
   -5.4853   -5.8293    0.0000 C   0  0  0  0  0  0  0  0  0  0  0  0
   -4.8752   -7.1996    0.0000 N   0  0  0  0  0  0  0  0  0  0  0  0
   -6.9771   -5.6725    0.0000 O   0  0  0  0  0  0  0  0  0  0  0  0
   -9.3469   -1.7986    0.0000 C   0  0  0  0  0  0  0  0  0  0  0  0
  1  2  1  0
  2  3  1  0
  3  4  2  0
  4  5  1  0
  5  6  2  0
  6  7  1  0
  7  8  1  0
  8  9  1  0
  9 10  1  0
 10 11  1  0
 11 12  2  0
 12 13  1  0
 13 14  1  0
 14 15  2  0
 15 16  1  0
 16 17  2  0
 17 18  1  0
 18 19  2  0
 19 20  1  0
 20 21  2  0
 12 22  1  0
 22 23  1  0
 23 24  1  0
 24 25  1  0
 24 26  2  0
  7 27  2  0
 27  3  1  0
 23 10  2  0
 21 13  1  0
 21 16  1  0
M  END
>  <Compound_ID>  (802) 
CHEMBL516248

>  <Molecule Name>  (802) 
GW804482X

>  <Molecular Weight>  (802) 
379.44

>  <AlogP>  (802) 
3.77

>  <Smiles>  (802) 
COc1cccc(COc2cc(-n3cnc4ccccc43)sc2C(N)=O)c1

>  <Standard Type>  (802) 
Inhibition

>  <Standard Relation>  (802) 
'='

>  <Standard Units>  (802) 
%

>  <Standard Value>  (802) 
-7.54

>  <Assay ChEMBL ID>  (802) 
CHEMBL1962185

>  <Assay Description>  (802) 
GSK_PKIS: TRKA mean inhibition at 1 uM [Nanosyn]

>  <BAO Format ID>  (802) 
BAO_0000357

>  <BAO Label>  (802) 
single protein format

>  <Assay Organism>  (802) 
None

>  <Target ChEMBL ID>  (802) 
CHEMBL2815

>  <Target Name>  (802) 
Nerve growth factor receptor Trk-A

>  <Target Organism>  (802) 
Homo sapiens

>  <Target Type>  (802) 
SINGLE PROTEIN

>  <Document ChEMBL ID>  (802) 
CHEMBL1961873

>  <Source Description>  (802) 
GSK Published Kinase Inhibitor Set

>  <Document Journal>  (802) 
nan

>  <Document Year>  (802) 
nan

>  <Active>  (802) 
0.0

>  <bits>  (802) 
<rdkit.DataStructs.cDataStructs.ExplicitBitVect object at 0x00000159F79318C0>

>  <Group>  (802) 
G2

$$$$

     RDKit          2D

 20 22  0  0  0  0  0  0  0  0999 V2000
    5.2500   -1.2990    0.0000 C   0  0  0  0  0  0  0  0  0  0  0  0
    3.7500   -1.2990    0.0000 C   0  0  0  0  0  0  0  0  0  0  0  0
    3.0000    0.0000    0.0000 O   0  0  0  0  0  0  0  0  0  0  0  0
    1.5000    0.0000    0.0000 C   0  0  0  0  0  0  0  0  0  0  0  0
    0.7500   -1.2990    0.0000 N   0  0  0  0  0  0  0  0  0  0  0  0
   -0.7500   -1.2990    0.0000 C   0  0  0  0  0  0  0  0  0  0  0  0
   -1.5000    0.0000    0.0000 C   0  0  0  0  0  0  0  0  0  0  0  0
   -0.7500    1.2990    0.0000 C   0  0  0  0  0  0  0  0  0  0  0  0
    0.7500    1.2990    0.0000 C   0  0  0  0  0  0  0  0  0  0  0  0
    1.2135    2.7256    0.0000 N   0  0  0  0  0  0  0  0  0  0  0  0
    0.0000    3.6073    0.0000 C   0  0  0  0  0  0  0  0  0  0  0  0
    0.0000    5.1073    0.0000 C   0  0  0  0  0  0  0  0  0  0  0  0
   -1.2135    5.9890    0.0000 N   0  0  0  0  0  0  0  0  0  0  0  0
   -0.7500    7.4156    0.0000 O   0  0  0  0  0  0  0  0  0  0  0  0
    0.7500    7.4156    0.0000 N   0  0  0  0  0  0  0  0  0  0  0  0
    1.2135    5.9890    0.0000 C   0  0  0  0  0  0  0  0  0  0  0  0
    2.6401    5.5255    0.0000 N   0  0  0  0  0  0  0  0  0  0  0  0
   -1.2135    2.7256    0.0000 N   0  0  0  0  0  0  0  0  0  0  0  0
   -2.6401    3.1891    0.0000 C   0  0  0  0  0  0  0  0  0  0  0  0
   -3.7548    2.1855    0.0000 C   0  0  0  0  0  0  0  0  0  0  0  0
  1  2  1  0
  2  3  1  0
  3  4  1  0
  4  5  2  0
  5  6  1  0
  6  7  2  0
  7  8  1  0
  8  9  2  0
  9 10  1  0
 10 11  2  0
 11 12  1  0
 12 13  2  0
 13 14  1  0
 14 15  1  0
 15 16  2  0
 16 17  1  0
 11 18  1  0
 18 19  1  0
 19 20  1  0
  9  4  1  0
 16 12  1  0
 18  8  1  0
M  END
>  <Compound_ID>  (803) 
CHEMBL188240

>  <Molecule Name>  (803) 
nan

>  <Molecular Weight>  (803) 
274.28

>  <AlogP>  (803) 
1.48

>  <Smiles>  (803) 
CCOc1nccc2c1nc(-c1nonc1N)n2CC

>  <Standard Type>  (803) 
Inhibition

>  <Standard Relation>  (803) 
'='

>  <Standard Units>  (803) 
%

>  <Standard Value>  (803) 
-1.22

>  <Assay ChEMBL ID>  (803) 
CHEMBL1962184

>  <Assay Description>  (803) 
GSK_PKIS: TRKA mean inhibition at 0.1 uM [Nanosyn]

>  <BAO Format ID>  (803) 
BAO_0000357

>  <BAO Label>  (803) 
single protein format

>  <Assay Organism>  (803) 
None

>  <Target ChEMBL ID>  (803) 
CHEMBL2815

>  <Target Name>  (803) 
Nerve growth factor receptor Trk-A

>  <Target Organism>  (803) 
Homo sapiens

>  <Target Type>  (803) 
SINGLE PROTEIN

>  <Document ChEMBL ID>  (803) 
CHEMBL1961873

>  <Source Description>  (803) 
GSK Published Kinase Inhibitor Set

>  <Document Journal>  (803) 
nan

>  <Document Year>  (803) 
nan

>  <Active>  (803) 
0.0

>  <bits>  (803) 
<rdkit.DataStructs.cDataStructs.ExplicitBitVect object at 0x00000159F7930DD0>

>  <Group>  (803) 
G2

$$$$

     RDKit          2D

 34 38  0  0  0  0  0  0  0  0999 V2000
   -8.0346   -3.5760    0.0000 C   0  0  0  0  0  0  0  0  0  0  0  0
   -6.9199   -4.5797    0.0000 O   0  0  0  0  0  0  0  0  0  0  0  0
   -5.4933   -4.1162    0.0000 C   0  0  0  0  0  0  0  0  0  0  0  0
   -5.1814   -2.6490    0.0000 C   0  0  0  0  0  0  0  0  0  0  0  0
   -3.7548   -2.1855    0.0000 C   0  0  0  0  0  0  0  0  0  0  0  0
   -2.6401   -3.1891    0.0000 C   0  0  0  0  0  0  0  0  0  0  0  0
   -1.2135   -2.7256    0.0000 C   0  0  0  0  0  0  0  0  0  0  0  0
   -0.0000   -3.6073    0.0000 C   0  0  0  0  0  0  0  0  0  0  0  0
    1.2135   -2.7256    0.0000 N   0  0  0  0  0  0  0  0  0  0  0  0
    0.7500   -1.2990    0.0000 C   0  0  0  0  0  0  0  0  0  0  0  0
    1.5000    0.0000    0.0000 N   0  0  0  0  0  0  0  0  0  0  0  0
    0.7500    1.2990    0.0000 C   0  0  0  0  0  0  0  0  0  0  0  0
   -0.7500    1.2990    0.0000 C   0  0  0  0  0  0  0  0  0  0  0  0
   -1.5000    2.5981    0.0000 C   0  0  0  0  0  0  0  0  0  0  0  0
   -0.7500    3.8971    0.0000 C   0  0  0  0  0  0  0  0  0  0  0  0
   -1.5000    5.1962    0.0000 C   0  0  0  0  0  0  0  0  0  0  0  0
   -3.0000    5.1962    0.0000 C   0  0  0  0  0  0  0  0  0  0  0  0
   -3.7500    6.4952    0.0000 C   0  0  0  0  0  0  0  0  0  0  0  0
   -5.2500    6.4952    0.0000 O   0  0  0  0  0  0  0  0  0  0  0  0
   -3.0000    7.7942    0.0000 N   0  0  0  0  0  0  0  0  0  0  0  0
   -1.5000    7.7942    0.0000 C   0  0  0  0  0  0  0  0  0  0  0  0
   -0.7500    9.0933    0.0000 C   0  0  0  0  0  0  0  0  0  0  0  0
   -1.5000   10.3923    0.0000 O   0  0  0  0  0  0  0  0  0  0  0  0
   -3.0000   10.3923    0.0000 C   0  0  0  0  0  0  0  0  0  0  0  0
   -3.7500    9.0933    0.0000 C   0  0  0  0  0  0  0  0  0  0  0  0
   -3.7500    3.8971    0.0000 C   0  0  0  0  0  0  0  0  0  0  0  0
   -5.2500    3.8971    0.0000 N   0  0  0  0  0  0  0  0  0  0  0  0
   -3.0000    2.5981    0.0000 C   0  0  0  0  0  0  0  0  0  0  0  0
   -1.5000    0.0000    0.0000 C   0  0  0  0  0  0  0  0  0  0  0  0
   -0.7500   -1.2990    0.0000 C   0  0  0  0  0  0  0  0  0  0  0  0
   -2.9520   -4.6564    0.0000 C   0  0  0  0  0  0  0  0  0  0  0  0
   -4.3786   -5.1199    0.0000 C   0  0  0  0  0  0  0  0  0  0  0  0
   -4.6904   -6.5871    0.0000 O   0  0  0  0  0  0  0  0  0  0  0  0
   -3.5757   -7.5908    0.0000 C   0  0  0  0  0  0  0  0  0  0  0  0
  1  2  1  0
  2  3  1  0
  3  4  2  0
  4  5  1  0
  5  6  2  0
  6  7  1  0
  7  8  2  0
  8  9  1  0
  9 10  1  0
 10 11  2  0
 11 12  1  0
 12 13  2  0
 13 14  1  0
 14 15  2  0
 15 16  1  0
 16 17  2  0
 17 18  1  0
 18 19  2  0
 18 20  1  0
 20 21  1  0
 21 22  1  0
 22 23  1  0
 23 24  1  0
 24 25  1  0
 17 26  1  0
 26 27  1  0
 26 28  2  0
 13 29  1  0
 29 30  2  0
  6 31  1  0
 31 32  2  0
 32 33  1  0
 33 34  1  0
 32  3  1  0
 30  7  1  0
 30 10  1  0
 28 14  1  0
 25 20  1  0
M  END
>  <Compound_ID>  (804) 
CHEMBL3319467

>  <Molecule Name>  (804) 
nan

>  <Molecular Weight>  (804) 
458.52

>  <AlogP>  (804) 
3.97

>  <Smiles>  (804) 
COc1ccc(-c2c[nH]c3ncc(-c4ccc(C(=O)N5CCOCC5)c(N)c4)cc23)cc1OC

>  <Standard Type>  (804) 
Inhibition

>  <Standard Relation>  (804) 
'='

>  <Standard Units>  (804) 
%

>  <Standard Value>  (804) 
11.0

>  <Assay ChEMBL ID>  (804) 
CHEMBL3368579

>  <Assay Description>  (804) 
Inhibition of TRKA (unknown origin) at 1 uM by KINOMEscanning assay relative to control

>  <BAO Format ID>  (804) 
BAO_0000357

>  <BAO Label>  (804) 
single protein format

>  <Assay Organism>  (804) 
Homo sapiens

>  <Target ChEMBL ID>  (804) 
CHEMBL2815

>  <Target Name>  (804) 
Nerve growth factor receptor Trk-A

>  <Target Organism>  (804) 
Homo sapiens

>  <Target Type>  (804) 
SINGLE PROTEIN

>  <Document ChEMBL ID>  (804) 
CHEMBL3352338

>  <Source Description>  (804) 
Scientific Literature

>  <Document Journal>  (804) 
J Med Chem

>  <Document Year>  (804) 
2014.0

>  <Active>  (804) 
0.0

>  <bits>  (804) 
<rdkit.DataStructs.cDataStructs.ExplicitBitVect object at 0x00000159F7930350>

>  <Group>  (804) 
G2

$$$$

     RDKit          2D

 27 30  0  0  0  0  0  0  0  0999 V2000
   -2.0143    8.6263    0.0000 C   0  0  0  0  0  0  0  0  0  0  0  0
   -3.4408    8.1628    0.0000 C   0  0  0  0  0  0  0  0  0  0  0  0
   -3.7527    6.6955    0.0000 C   0  0  0  0  0  0  0  0  0  0  0  0
   -2.6380    5.6918    0.0000 C   0  0  0  0  0  0  0  0  0  0  0  0
   -1.2114    6.1554    0.0000 O   0  0  0  0  0  0  0  0  0  0  0  0
   -2.9499    4.2246    0.0000 N   0  0  0  0  0  0  0  0  0  0  0  0
   -1.8351    3.2209    0.0000 C   0  0  0  0  0  0  0  0  0  0  0  0
   -0.4086    3.6844    0.0000 C   0  0  0  0  0  0  0  0  0  0  0  0
    0.7062    2.6807    0.0000 C   0  0  0  0  0  0  0  0  0  0  0  0
    0.3943    1.2135    0.0000 C   0  0  0  0  0  0  0  0  0  0  0  0
    1.2760    0.0000    0.0000 N   0  0  0  0  0  0  0  0  0  0  0  0
    0.3943   -1.2135    0.0000 N   0  0  0  0  0  0  0  0  0  0  0  0
   -1.0323   -0.7500    0.0000 C   0  0  0  0  0  0  0  0  0  0  0  0
   -1.0323    0.7500    0.0000 C   0  0  0  0  0  0  0  0  0  0  0  0
   -2.1470    1.7537    0.0000 C   0  0  0  0  0  0  0  0  0  0  0  0
   -5.1793    6.2320    0.0000 C   0  0  0  0  0  0  0  0  0  0  0  0
   -5.4912    4.7648    0.0000 C   0  0  0  0  0  0  0  0  0  0  0  0
   -6.9177    4.3013    0.0000 C   0  0  0  0  0  0  0  0  0  0  0  0
   -7.2296    2.8340    0.0000 C   0  0  0  0  0  0  0  0  0  0  0  0
   -6.1149    1.8303    0.0000 C   0  0  0  0  0  0  0  0  0  0  0  0
   -6.4268    0.3631    0.0000 F   0  0  0  0  0  0  0  0  0  0  0  0
   -4.6883    2.2939    0.0000 C   0  0  0  0  0  0  0  0  0  0  0  0
   -4.3764    3.7611    0.0000 C   0  0  0  0  0  0  0  0  0  0  0  0
   -6.2940    7.2357    0.0000 N   0  0  0  0  0  0  0  0  0  0  0  0
   -5.9821    8.7029    0.0000 C   0  0  0  0  0  0  0  0  0  0  0  0
   -7.0969    9.7066    0.0000 O   0  0  0  0  0  0  0  0  0  0  0  0
   -4.5556    9.1664    0.0000 N   0  0  0  0  0  0  0  0  0  0  0  0
  1  2  1  0
  2  3  2  0
  3  4  1  0
  4  5  2  0
  4  6  1  0
  6  7  1  0
  7  8  2  0
  8  9  1  0
  9 10  2  0
 10 11  1  0
 11 12  1  0
 12 13  2  0
 13 14  1  0
 14 15  2  0
  3 16  1  0
 16 17  1  0
 17 18  2  0
 18 19  1  0
 19 20  2  0
 20 21  1  0
 20 22  1  0
 22 23  2  0
 16 24  1  0
 24 25  1  0
 25 26  2  0
 25 27  1  0
 27  2  1  0
 15  7  1  0
 23 17  1  0
 14 10  1  0
M  END
>  <Compound_ID>  (805) 
CHEMBL384073

>  <Molecule Name>  (805) 
GSK-180736A

>  <Molecular Weight>  (805) 
365.37

>  <AlogP>  (805) 
2.97

>  <Smiles>  (805) 
CC1=C(C(=O)Nc2ccc3[nH]ncc3c2)C(c2ccc(F)cc2)NC(=O)N1

>  <Standard Type>  (805) 
Inhibition

>  <Standard Relation>  (805) 
'='

>  <Standard Units>  (805) 
%

>  <Standard Value>  (805) 
3.3

>  <Assay ChEMBL ID>  (805) 
CHEMBL1962185

>  <Assay Description>  (805) 
GSK_PKIS: TRKA mean inhibition at 1 uM [Nanosyn]

>  <BAO Format ID>  (805) 
BAO_0000357

>  <BAO Label>  (805) 
single protein format

>  <Assay Organism>  (805) 
None

>  <Target ChEMBL ID>  (805) 
CHEMBL2815

>  <Target Name>  (805) 
Nerve growth factor receptor Trk-A

>  <Target Organism>  (805) 
Homo sapiens

>  <Target Type>  (805) 
SINGLE PROTEIN

>  <Document ChEMBL ID>  (805) 
CHEMBL1961873

>  <Source Description>  (805) 
GSK Published Kinase Inhibitor Set

>  <Document Journal>  (805) 
nan

>  <Document Year>  (805) 
nan

>  <Active>  (805) 
0.0

>  <bits>  (805) 
<rdkit.DataStructs.cDataStructs.ExplicitBitVect object at 0x00000159F7933840>

>  <Group>  (805) 
G2

$$$$

     RDKit          2D

 38 42  0  0  0  0  0  0  0  0999 V2000
    3.2011   14.4185    0.0000 C   0  0  0  0  0  0  0  0  0  0  0  0
    1.7745   13.9550    0.0000 C   0  0  0  0  0  0  0  0  0  0  0  0
    1.4627   12.4878    0.0000 C   0  0  0  0  0  0  0  0  0  0  0  0
    0.0361   12.0242    0.0000 N   0  0  0  0  0  0  0  0  0  0  0  0
   -1.0786   13.0279    0.0000 C   0  0  0  0  0  0  0  0  0  0  0  0
   -2.5052   12.5644    0.0000 C   0  0  0  0  0  0  0  0  0  0  0  0
   -2.8171   11.0972    0.0000 C   0  0  0  0  0  0  0  0  0  0  0  0
   -1.7024   10.0935    0.0000 C   0  0  0  0  0  0  0  0  0  0  0  0
   -2.0143    8.6263    0.0000 C   0  0  0  0  0  0  0  0  0  0  0  0
   -0.8995    7.6226    0.0000 C   0  0  0  0  0  0  0  0  0  0  0  0
   -1.2114    6.1554    0.0000 C   0  0  0  0  0  0  0  0  0  0  0  0
   -2.6380    5.6918    0.0000 C   0  0  0  0  0  0  0  0  0  0  0  0
   -2.9499    4.2246    0.0000 N   0  0  0  0  0  0  0  0  0  0  0  0
   -1.8351    3.2209    0.0000 C   0  0  0  0  0  0  0  0  0  0  0  0
   -0.4086    3.6844    0.0000 N   0  0  0  0  0  0  0  0  0  0  0  0
    0.7062    2.6807    0.0000 C   0  0  0  0  0  0  0  0  0  0  0  0
    2.1328    3.1443    0.0000 N   0  0  0  0  0  0  0  0  0  0  0  0
    2.4446    4.6115    0.0000 C   0  0  0  0  0  0  0  0  0  0  0  0
    1.3299    5.6152    0.0000 C   0  0  0  0  0  0  0  0  0  0  0  0
    1.6418    7.0824    0.0000 C   0  0  0  0  0  0  0  0  0  0  0  0
    0.5271    8.0861    0.0000 F   0  0  0  0  0  0  0  0  0  0  0  0
    3.0684    7.5459    0.0000 C   0  0  0  0  0  0  0  0  0  0  0  0
    4.1831    6.5422    0.0000 C   0  0  0  0  0  0  0  0  0  0  0  0
    3.8712    5.0750    0.0000 C   0  0  0  0  0  0  0  0  0  0  0  0
    4.9859    4.0713    0.0000 C   0  0  0  0  0  0  0  0  0  0  0  0
    6.4125    4.5348    0.0000 N   0  0  0  0  0  0  0  0  0  0  0  0
    4.6741    2.6041    0.0000 O   0  0  0  0  0  0  0  0  0  0  0  0
    0.3943    1.2135    0.0000 C   0  0  0  0  0  0  0  0  0  0  0  0
    1.2760    0.0000    0.0000 C   0  0  0  0  0  0  0  0  0  0  0  0
    0.3943   -1.2135    0.0000 C   0  0  0  0  0  0  0  0  0  0  0  0
   -1.0323   -0.7500    0.0000 N   0  0  0  0  0  0  0  0  0  0  0  0
   -1.0323    0.7500    0.0000 C   0  0  0  0  0  0  0  0  0  0  0  0
   -2.1470    1.7537    0.0000 N   0  0  0  0  0  0  0  0  0  0  0  0
   -3.7527    6.6955    0.0000 C   0  0  0  0  0  0  0  0  0  0  0  0
   -5.1793    6.2320    0.0000 O   0  0  0  0  0  0  0  0  0  0  0  0
   -5.4912    4.7648    0.0000 C   0  0  0  0  0  0  0  0  0  0  0  0
   -3.4408    8.1628    0.0000 C   0  0  0  0  0  0  0  0  0  0  0  0
   -0.2758   10.5570    0.0000 C   0  0  0  0  0  0  0  0  0  0  0  0
  1  2  1  0
  2  3  1  0
  3  4  1  0
  4  5  1  0
  5  6  1  0
  6  7  1  0
  7  8  1  0
  8  9  1  0
  9 10  2  0
 10 11  1  0
 11 12  2  0
 12 13  1  0
 13 14  1  0
 14 15  2  0
 15 16  1  0
 16 17  1  0
 17 18  1  0
 18 19  2  0
 19 20  1  0
 20 21  1  0
 20 22  2  0
 22 23  1  0
 23 24  2  0
 24 25  1  0
 25 26  1  0
 25 27  2  0
 16 28  2  0
 28 29  1  0
 29 30  2  0
 30 31  1  0
 31 32  1  0
 32 33  2  0
 12 34  1  0
 34 35  1  0
 35 36  1  0
 34 37  2  0
  8 38  1  0
 38  4  1  0
 37  9  1  0
 33 14  1  0
 24 18  1  0
 32 28  1  0
M  END
>  <Compound_ID>  (806) 
CHEMBL477069

>  <Molecule Name>  (806) 
GSK-1173862A

>  <Molecular Weight>  (806) 
517.61

>  <AlogP>  (806) 
5.28

>  <Smiles>  (806) 
CCCN1CCCC(c2ccc(Nc3nc(Nc4cc(F)ccc4C(N)=O)c4cc[nH]c4n3)c(OC)c2)C1

>  <Standard Type>  (806) 
Inhibition

>  <Standard Relation>  (806) 
'='

>  <Standard Units>  (806) 
%

>  <Standard Value>  (806) 
5.65

>  <Assay ChEMBL ID>  (806) 
CHEMBL1962185

>  <Assay Description>  (806) 
GSK_PKIS: TRKA mean inhibition at 1 uM [Nanosyn]

>  <BAO Format ID>  (806) 
BAO_0000357

>  <BAO Label>  (806) 
single protein format

>  <Assay Organism>  (806) 
None

>  <Target ChEMBL ID>  (806) 
CHEMBL2815

>  <Target Name>  (806) 
Nerve growth factor receptor Trk-A

>  <Target Organism>  (806) 
Homo sapiens

>  <Target Type>  (806) 
SINGLE PROTEIN

>  <Document ChEMBL ID>  (806) 
CHEMBL1961873

>  <Source Description>  (806) 
GSK Published Kinase Inhibitor Set

>  <Document Journal>  (806) 
nan

>  <Document Year>  (806) 
nan

>  <Active>  (806) 
0.0

>  <bits>  (806) 
<rdkit.DataStructs.cDataStructs.ExplicitBitVect object at 0x00000159F7933060>

>  <Group>  (806) 
G2

$$$$

     RDKit          2D

 32 36  0  0  0  0  0  0  0  0999 V2000
   -1.2990  -10.3573    0.0000 C   0  0  0  0  0  0  0  0  0  0  0  0
    0.0000   -9.6073    0.0000 O   0  0  0  0  0  0  0  0  0  0  0  0
    0.0000   -8.1073    0.0000 C   0  0  0  0  0  0  0  0  0  0  0  0
   -1.2990   -7.3573    0.0000 C   0  0  0  0  0  0  0  0  0  0  0  0
   -1.2990   -5.8573    0.0000 C   0  0  0  0  0  0  0  0  0  0  0  0
   -0.0000   -5.1073    0.0000 C   0  0  0  0  0  0  0  0  0  0  0  0
   -0.0000   -3.6073    0.0000 C   0  0  0  0  0  0  0  0  0  0  0  0
    1.2135   -2.7256    0.0000 N   0  0  0  0  0  0  0  0  0  0  0  0
    0.7500   -1.2990    0.0000 N   0  0  0  0  0  0  0  0  0  0  0  0
    1.5000    0.0000    0.0000 N   0  0  0  0  0  0  0  0  0  0  0  0
    0.7500    1.2990    0.0000 C   0  0  0  0  0  0  0  0  0  0  0  0
   -0.7500    1.2990    0.0000 C   0  0  0  0  0  0  0  0  0  0  0  0
   -1.5000    0.0000    0.0000 C   0  0  0  0  0  0  0  0  0  0  0  0
   -0.7500   -1.2990    0.0000 C   0  0  0  0  0  0  0  0  0  0  0  0
   -1.2135   -2.7256    0.0000 C   0  0  0  0  0  0  0  0  0  0  0  0
   -2.6401   -3.1891    0.0000 C   0  0  0  0  0  0  0  0  0  0  0  0
   -3.7548   -2.1855    0.0000 C   0  0  0  0  0  0  0  0  0  0  0  0
   -5.1814   -2.6490    0.0000 C   0  0  0  0  0  0  0  0  0  0  0  0
   -5.4933   -4.1162    0.0000 N   0  0  0  0  0  0  0  0  0  0  0  0
   -4.3786   -5.1199    0.0000 C   0  0  0  0  0  0  0  0  0  0  0  0
   -4.6904   -6.5871    0.0000 N   0  0  0  0  0  0  0  0  0  0  0  0
   -6.1170   -7.0506    0.0000 C   0  0  0  0  0  0  0  0  0  0  0  0
   -7.2317   -6.0469    0.0000 C   0  0  0  0  0  0  0  0  0  0  0  0
   -8.6583   -6.5105    0.0000 C   0  0  0  0  0  0  0  0  0  0  0  0
   -8.9702   -7.9777    0.0000 C   0  0  0  0  0  0  0  0  0  0  0  0
  -10.3968   -8.4412    0.0000 F   0  0  0  0  0  0  0  0  0  0  0  0
   -7.8555   -8.9814    0.0000 C   0  0  0  0  0  0  0  0  0  0  0  0
   -8.1673  -10.4486    0.0000 F   0  0  0  0  0  0  0  0  0  0  0  0
   -6.4289   -8.5179    0.0000 C   0  0  0  0  0  0  0  0  0  0  0  0
   -2.9520   -4.6564    0.0000 N   0  0  0  0  0  0  0  0  0  0  0  0
    1.2990   -5.8573    0.0000 C   0  0  0  0  0  0  0  0  0  0  0  0
    1.2990   -7.3573    0.0000 C   0  0  0  0  0  0  0  0  0  0  0  0
  1  2  1  0
  2  3  1  0
  3  4  2  0
  4  5  1  0
  5  6  2  0
  6  7  1  0
  7  8  2  0
  8  9  1  0
  9 10  1  0
 10 11  2  0
 11 12  1  0
 12 13  2  0
 13 14  1  0
 14 15  2  0
 15 16  1  0
 16 17  2  0
 17 18  1  0
 18 19  2  0
 19 20  1  0
 20 21  1  0
 21 22  1  0
 22 23  2  0
 23 24  1  0
 24 25  2  0
 25 26  1  0
 25 27  1  0
 27 28  1  0
 27 29  2  0
 20 30  2  0
  6 31  1  0
 31 32  2  0
 32  3  1  0
 15  7  1  0
 30 16  1  0
 14  9  1  0
 29 22  1  0
M  END
>  <Compound_ID>  (807) 
CHEMBL427159

>  <Molecule Name>  (807) 
GW827396X

>  <Molecular Weight>  (807) 
430.42

>  <AlogP>  (807) 
4.88

>  <Smiles>  (807) 
COc1ccc(-c2nn3ncccc3c2-c2ccnc(Nc3ccc(F)c(F)c3)n2)cc1

>  <Standard Type>  (807) 
Inhibition

>  <Standard Relation>  (807) 
'='

>  <Standard Units>  (807) 
%

>  <Standard Value>  (807) 
1.54

>  <Assay ChEMBL ID>  (807) 
CHEMBL1962184

>  <Assay Description>  (807) 
GSK_PKIS: TRKA mean inhibition at 0.1 uM [Nanosyn]

>  <BAO Format ID>  (807) 
BAO_0000357

>  <BAO Label>  (807) 
single protein format

>  <Assay Organism>  (807) 
None

>  <Target ChEMBL ID>  (807) 
CHEMBL2815

>  <Target Name>  (807) 
Nerve growth factor receptor Trk-A

>  <Target Organism>  (807) 
Homo sapiens

>  <Target Type>  (807) 
SINGLE PROTEIN

>  <Document ChEMBL ID>  (807) 
CHEMBL1961873

>  <Source Description>  (807) 
GSK Published Kinase Inhibitor Set

>  <Document Journal>  (807) 
nan

>  <Document Year>  (807) 
nan

>  <Active>  (807) 
0.0

>  <bits>  (807) 
<rdkit.DataStructs.cDataStructs.ExplicitBitVect object at 0x00000159F79311C0>

>  <Group>  (807) 
G2

$$$$

     RDKit          2D

 34 38  0  0  0  0  0  0  0  0999 V2000
    3.0000  -15.5885    0.0000 C   0  0  0  0  0  0  0  0  0  0  0  0
    3.7500  -14.2894    0.0000 C   0  0  0  0  0  0  0  0  0  0  0  0
    3.0000  -12.9904    0.0000 C   0  0  0  0  0  0  0  0  0  0  0  0
    3.7500  -11.6913    0.0000 C   0  0  0  0  0  0  0  0  0  0  0  0
    5.2500  -11.6913    0.0000 C   0  0  0  0  0  0  0  0  0  0  0  0
    6.0000  -12.9904    0.0000 C   0  0  0  0  0  0  0  0  0  0  0  0
    7.5000  -12.9904    0.0000 O   0  0  0  0  0  0  0  0  0  0  0  0
    8.2500  -11.6913    0.0000 C   0  0  0  0  0  0  0  0  0  0  0  0
    9.7500  -11.6913    0.0000 C   0  0  0  0  0  0  0  0  0  0  0  0
   10.5000  -10.3923    0.0000 C   0  0  0  0  0  0  0  0  0  0  0  0
    9.7500   -9.0933    0.0000 N   0  0  0  0  0  0  0  0  0  0  0  0
    8.2500   -9.0933    0.0000 C   0  0  0  0  0  0  0  0  0  0  0  0
    7.5000   -7.7942    0.0000 N   0  0  0  0  0  0  0  0  0  0  0  0
    8.2500   -6.4952    0.0000 C   0  0  0  0  0  0  0  0  0  0  0  0
    7.5000   -5.1962    0.0000 C   0  0  0  0  0  0  0  0  0  0  0  0
    6.0000   -5.1962    0.0000 N   0  0  0  0  0  0  0  0  0  0  0  0
    5.2500   -3.8971    0.0000 C   0  0  0  0  0  0  0  0  0  0  0  0
    3.7500   -3.8971    0.0000 C   0  0  0  0  0  0  0  0  0  0  0  0
    3.0000   -5.1962    0.0000 O   0  0  0  0  0  0  0  0  0  0  0  0
    3.0000   -2.5981    0.0000 N   0  0  0  0  0  0  0  0  0  0  0  0
    1.5000   -2.5981    0.0000 C   0  0  0  0  0  0  0  0  0  0  0  0
    0.7500   -3.8971    0.0000 C   0  0  0  0  0  0  0  0  0  0  0  0
   -0.7500   -3.8971    0.0000 C   0  0  0  0  0  0  0  0  0  0  0  0
   -1.5000   -2.5981    0.0000 C   0  0  0  0  0  0  0  0  0  0  0  0
   -0.7500   -1.2990    0.0000 C   0  0  0  0  0  0  0  0  0  0  0  0
    0.7500   -1.2990    0.0000 C   0  0  0  0  0  0  0  0  0  0  0  0
    1.5000    0.0000    0.0000 C   0  0  0  0  0  0  0  0  0  0  0  0
    0.7500    1.2990    0.0000 C   0  0  0  0  0  0  0  0  0  0  0  0
   -0.7500    1.2990    0.0000 C   0  0  0  0  0  0  0  0  0  0  0  0
   -1.5000    0.0000    0.0000 C   0  0  0  0  0  0  0  0  0  0  0  0
    5.2500   -6.4952    0.0000 C   0  0  0  0  0  0  0  0  0  0  0  0
    6.0000   -7.7942    0.0000 C   0  0  0  0  0  0  0  0  0  0  0  0
    7.5000  -10.3923    0.0000 N   0  0  0  0  0  0  0  0  0  0  0  0
    5.2500  -14.2894    0.0000 C   0  0  0  0  0  0  0  0  0  0  0  0
  1  2  1  0
  2  3  2  0
  3  4  1  0
  4  5  2  0
  5  6  1  0
  6  7  1  0
  7  8  1  0
  8  9  2  0
  9 10  1  0
 10 11  2  0
 11 12  1  0
 12 13  1  0
 13 14  1  0
 14 15  1  0
 15 16  1  0
 16 17  1  0
 17 18  1  0
 18 19  2  0
 18 20  1  0
 20 21  1  0
 21 22  2  0
 22 23  1  0
 23 24  2  0
 24 25  1  0
 25 26  2  0
 26 27  1  0
 27 28  1  0
 28 29  1  0
 29 30  1  0
 16 31  1  0
 31 32  1  0
 12 33  2  0
  6 34  2  0
 34  2  1  0
 33  8  1  0
 32 13  1  0
 26 21  1  0
 30 25  1  0
M  END
>  <Compound_ID>  (808) 
CHEMBL520512

>  <Molecule Name>  (808) 
nan

>  <Molecular Weight>  (808) 
457.58

>  <AlogP>  (808) 
4.22

>  <Smiles>  (808) 
Cc1cccc(Oc2ccnc(N3CCN(CC(=O)Nc4cccc5c4CCCC5)CC3)n2)c1

>  <Standard Type>  (808) 
Inhibition

>  <Standard Relation>  (808) 
'='

>  <Standard Units>  (808) 
%

>  <Standard Value>  (808) 
10.0

>  <Assay ChEMBL ID>  (808) 
CHEMBL965679

>  <Assay Description>  (808) 
Inhibition of TrkA at 10 uM by HTRF assay relative to control

>  <BAO Format ID>  (808) 
BAO_0000357

>  <BAO Label>  (808) 
single protein format

>  <Assay Organism>  (808) 
None

>  <Target ChEMBL ID>  (808) 
CHEMBL2815

>  <Target Name>  (808) 
Nerve growth factor receptor Trk-A

>  <Target Organism>  (808) 
Homo sapiens

>  <Target Type>  (808) 
SINGLE PROTEIN

>  <Document ChEMBL ID>  (808) 
CHEMBL1150387

>  <Source Description>  (808) 
Scientific Literature

>  <Document Journal>  (808) 
J Med Chem

>  <Document Year>  (808) 
2008.0

>  <Active>  (808) 
0.0

>  <bits>  (808) 
<rdkit.DataStructs.cDataStructs.ExplicitBitVect object at 0x00000159F7933DF0>

>  <Group>  (808) 
G2

$$$$

     RDKit          2D

 36 40  0  0  0  0  0  0  0  0999 V2000
    3.0000    0.0000    0.0000 C   0  0  0  0  0  0  0  0  0  0  0  0
    1.5000    0.0000    0.0000 C   0  0  0  0  0  0  0  0  0  0  0  0
    0.7500   -1.2990    0.0000 C   0  0  0  0  0  0  0  0  0  0  0  0
   -0.7500   -1.2990    0.0000 C   0  0  0  0  0  0  0  0  0  0  0  0
   -1.5000    0.0000    0.0000 C   0  0  0  0  0  0  0  0  0  0  0  0
   -0.7500    1.2990    0.0000 C   0  0  0  0  0  0  0  0  0  0  0  0
   -1.5000    2.5981    0.0000 N   0  0  0  0  0  0  0  0  0  0  0  0
   -0.7500    3.8971    0.0000 C   0  0  0  0  0  0  0  0  0  0  0  0
   -3.0000    2.5981    0.0000 C   0  0  0  0  0  0  0  0  0  0  0  0
   -3.7500    3.8971    0.0000 C   0  0  0  0  0  0  0  0  0  0  0  0
   -5.2500    3.8971    0.0000 C   0  0  0  0  0  0  0  0  0  0  0  0
   -6.0000    5.1962    0.0000 N   0  0  0  0  0  0  0  0  0  0  0  0
   -5.2500    6.4952    0.0000 C   0  0  0  0  0  0  0  0  0  0  0  0
   -6.0000    7.7942    0.0000 C   0  0  0  0  0  0  0  0  0  0  0  0
   -7.5000    7.7942    0.0000 N   0  0  0  0  0  0  0  0  0  0  0  0
   -8.2500    9.0933    0.0000 C   0  0  0  0  0  0  0  0  0  0  0  0
   -7.5000   10.3923    0.0000 C   0  0  0  0  0  0  0  0  0  0  0  0
   -6.0000   10.3923    0.0000 O   0  0  0  0  0  0  0  0  0  0  0  0
   -8.2500   11.6913    0.0000 N   0  0  0  0  0  0  0  0  0  0  0  0
   -7.5000   12.9904    0.0000 C   0  0  0  0  0  0  0  0  0  0  0  0
   -8.1101   14.3607    0.0000 N   0  0  0  0  0  0  0  0  0  0  0  0
   -6.9954   15.3644    0.0000 C   0  0  0  0  0  0  0  0  0  0  0  0
   -7.1522   16.8562    0.0000 C   0  0  0  0  0  0  0  0  0  0  0  0
   -5.9387   17.7379    0.0000 C   0  0  0  0  0  0  0  0  0  0  0  0
   -6.0954   19.2296    0.0000 C   0  0  0  0  0  0  0  0  0  0  0  0
   -7.4658   19.8397    0.0000 C   0  0  0  0  0  0  0  0  0  0  0  0
   -8.6793   18.9581    0.0000 C   0  0  0  0  0  0  0  0  0  0  0  0
   -8.5225   17.4663    0.0000 C   0  0  0  0  0  0  0  0  0  0  0  0
   -5.6963   14.6144    0.0000 C   0  0  0  0  0  0  0  0  0  0  0  0
   -6.0082   13.1472    0.0000 S   0  0  0  0  0  0  0  0  0  0  0  0
   -8.2500    6.4952    0.0000 C   0  0  0  0  0  0  0  0  0  0  0  0
   -7.5000    5.1962    0.0000 C   0  0  0  0  0  0  0  0  0  0  0  0
   -6.0000    2.5981    0.0000 N   0  0  0  0  0  0  0  0  0  0  0  0
   -5.2500    1.2990    0.0000 C   0  0  0  0  0  0  0  0  0  0  0  0
   -3.7500    1.2990    0.0000 N   0  0  0  0  0  0  0  0  0  0  0  0
    0.7500    1.2990    0.0000 C   0  0  0  0  0  0  0  0  0  0  0  0
  1  2  1  0
  2  3  2  0
  3  4  1  0
  4  5  2  0
  5  6  1  0
  6  7  1  0
  7  8  1  0
  7  9  1  0
  9 10  2  0
 10 11  1  0
 11 12  1  0
 12 13  1  0
 13 14  1  0
 14 15  1  0
 15 16  1  0
 16 17  1  0
 17 18  2  0
 17 19  1  0
 19 20  1  0
 20 21  2  0
 21 22  1  0
 22 23  1  0
 23 24  2  0
 24 25  1  0
 25 26  2  0
 26 27  1  0
 27 28  2  0
 22 29  2  0
 29 30  1  0
 15 31  1  0
 31 32  1  0
 11 33  2  0
 33 34  1  0
 34 35  2  0
  6 36  2  0
 36  2  1  0
 35  9  1  0
 32 12  1  0
 30 20  1  0
 28 23  1  0
M  END
>  <Compound_ID>  (809) 
CHEMBL519534

>  <Molecule Name>  (809) 
nan

>  <Molecular Weight>  (809) 
499.64

>  <AlogP>  (809) 
4.44

>  <Smiles>  (809) 
Cc1cccc(N(C)c2cc(N3CCN(CC(=O)Nc4nc(-c5ccccc5)cs4)CC3)ncn2)c1

>  <Standard Type>  (809) 
Inhibition

>  <Standard Relation>  (809) 
'='

>  <Standard Units>  (809) 
%

>  <Standard Value>  (809) 
8.0

>  <Assay ChEMBL ID>  (809) 
CHEMBL965679

>  <Assay Description>  (809) 
Inhibition of TrkA at 10 uM by HTRF assay relative to control

>  <BAO Format ID>  (809) 
BAO_0000357

>  <BAO Label>  (809) 
single protein format

>  <Assay Organism>  (809) 
None

>  <Target ChEMBL ID>  (809) 
CHEMBL2815

>  <Target Name>  (809) 
Nerve growth factor receptor Trk-A

>  <Target Organism>  (809) 
Homo sapiens

>  <Target Type>  (809) 
SINGLE PROTEIN

>  <Document ChEMBL ID>  (809) 
CHEMBL1150387

>  <Source Description>  (809) 
Scientific Literature

>  <Document Journal>  (809) 
J Med Chem

>  <Document Year>  (809) 
2008.0

>  <Active>  (809) 
0.0

>  <bits>  (809) 
<rdkit.DataStructs.cDataStructs.ExplicitBitVect object at 0x00000159F7931D20>

>  <Group>  (809) 
G2

$$$$

     RDKit          2D

 24 26  0  0  0  0  0  0  0  0999 V2000
    1.8478   -6.4639    0.0000 O   0  0  0  0  0  0  0  0  0  0  0  0
    2.0046   -4.9721    0.0000 C   0  0  0  0  0  0  0  0  0  0  0  0
    3.3037   -4.2221    0.0000 N   0  0  0  0  0  0  0  0  0  0  0  0
    2.9918   -2.7549    0.0000 C   0  0  0  0  0  0  0  0  0  0  0  0
    3.9955   -1.6402    0.0000 O   0  0  0  0  0  0  0  0  0  0  0  0
    1.5000   -2.5981    0.0000 C   0  0  0  0  0  0  0  0  0  0  0  0
    0.7500   -1.2990    0.0000 C   0  0  0  0  0  0  0  0  0  0  0  0
    1.5000    0.0000    0.0000 C   0  0  0  0  0  0  0  0  0  0  0  0
    0.7500    1.2990    0.0000 C   0  0  0  0  0  0  0  0  0  0  0  0
   -0.7500    1.2990    0.0000 C   0  0  0  0  0  0  0  0  0  0  0  0
   -1.5000    0.0000    0.0000 C   0  0  0  0  0  0  0  0  0  0  0  0
   -0.7500   -1.2990    0.0000 C   0  0  0  0  0  0  0  0  0  0  0  0
   -1.5000   -2.5981    0.0000 Cl  0  0  0  0  0  0  0  0  0  0  0  0
    0.8899   -3.9684    0.0000 C   0  0  0  0  0  0  0  0  0  0  0  0
   -0.5773   -4.2803    0.0000 N   0  0  0  0  0  0  0  0  0  0  0  0
   -1.0409   -5.7068    0.0000 C   0  0  0  0  0  0  0  0  0  0  0  0
   -2.5081   -6.0187    0.0000 C   0  0  0  0  0  0  0  0  0  0  0  0
   -2.9716   -7.4453    0.0000 C   0  0  0  0  0  0  0  0  0  0  0  0
   -4.4388   -7.7572    0.0000 Cl  0  0  0  0  0  0  0  0  0  0  0  0
   -1.9679   -8.5600    0.0000 C   0  0  0  0  0  0  0  0  0  0  0  0
   -2.4314   -9.9866    0.0000 O   0  0  0  0  0  0  0  0  0  0  0  0
   -0.5007   -8.2481    0.0000 C   0  0  0  0  0  0  0  0  0  0  0  0
    0.5030   -9.3629    0.0000 Cl  0  0  0  0  0  0  0  0  0  0  0  0
   -0.0372   -6.8216    0.0000 C   0  0  0  0  0  0  0  0  0  0  0  0
  1  2  2  0
  2  3  1  0
  3  4  1  0
  4  5  2  0
  4  6  1  0
  6  7  1  0
  7  8  2  0
  8  9  1  0
  9 10  2  0
 10 11  1  0
 11 12  2  0
 12 13  1  0
  6 14  2  0
 14 15  1  0
 15 16  1  0
 16 17  2  0
 17 18  1  0
 18 19  1  0
 18 20  2  0
 20 21  1  0
 20 22  1  0
 22 23  1  0
 22 24  2  0
 14  2  1  0
 24 16  1  0
 12  7  1  0
M  END
>  <Compound_ID>  (810) 
CHEMBL157258

>  <Molecule Name>  (810) 
nan

>  <Molecular Weight>  (810) 
383.62

>  <AlogP>  (810) 
3.83

>  <Smiles>  (810) 
O=C1NC(=O)C(c2ccccc2Cl)=C1Nc1cc(Cl)c(O)c(Cl)c1

>  <Standard Type>  (810) 
Inhibition

>  <Standard Relation>  (810) 
'='

>  <Standard Units>  (810) 
%

>  <Standard Value>  (810) 
2.64

>  <Assay ChEMBL ID>  (810) 
CHEMBL1962185

>  <Assay Description>  (810) 
GSK_PKIS: TRKA mean inhibition at 1 uM [Nanosyn]

>  <BAO Format ID>  (810) 
BAO_0000357

>  <BAO Label>  (810) 
single protein format

>  <Assay Organism>  (810) 
None

>  <Target ChEMBL ID>  (810) 
CHEMBL2815

>  <Target Name>  (810) 
Nerve growth factor receptor Trk-A

>  <Target Organism>  (810) 
Homo sapiens

>  <Target Type>  (810) 
SINGLE PROTEIN

>  <Document ChEMBL ID>  (810) 
CHEMBL1961873

>  <Source Description>  (810) 
GSK Published Kinase Inhibitor Set

>  <Document Journal>  (810) 
nan

>  <Document Year>  (810) 
nan

>  <Active>  (810) 
0.0

>  <bits>  (810) 
<rdkit.DataStructs.cDataStructs.ExplicitBitVect object at 0x00000159F7933AE0>

>  <Group>  (810) 
G2

$$$$

     RDKit          2D

 23 26  0  0  0  0  0  0  0  0999 V2000
   -2.9520   -4.6564    0.0000 C   0  0  0  0  0  0  0  0  0  0  0  0
   -2.6401   -3.1891    0.0000 C   0  0  0  0  0  0  0  0  0  0  0  0
   -3.7548   -2.1855    0.0000 C   0  0  0  0  0  0  0  0  0  0  0  0
   -1.2135   -2.7256    0.0000 N   0  0  0  0  0  0  0  0  0  0  0  0
   -0.0000   -3.6073    0.0000 N   0  0  0  0  0  0  0  0  0  0  0  0
    1.2135   -2.7256    0.0000 C   0  0  0  0  0  0  0  0  0  0  0  0
    2.6401   -3.1891    0.0000 C   0  0  0  0  0  0  0  0  0  0  0  0
    3.1036   -4.6157    0.0000 C   0  0  0  0  0  0  0  0  0  0  0  0
    4.6036   -4.6157    0.0000 C   0  0  0  0  0  0  0  0  0  0  0  0
    5.6073   -5.7305    0.0000 C   0  0  0  0  0  0  0  0  0  0  0  0
    7.0746   -5.4186    0.0000 C   0  0  0  0  0  0  0  0  0  0  0  0
    8.0782   -6.5333    0.0000 O   0  0  0  0  0  0  0  0  0  0  0  0
    7.5381   -3.9920    0.0000 C   0  0  0  0  0  0  0  0  0  0  0  0
    6.5344   -2.8773    0.0000 C   0  0  0  0  0  0  0  0  0  0  0  0
    5.0672   -3.1891    0.0000 C   0  0  0  0  0  0  0  0  0  0  0  0
    3.8536   -2.3075    0.0000 N   0  0  0  0  0  0  0  0  0  0  0  0
    0.7500   -1.2990    0.0000 C   0  0  0  0  0  0  0  0  0  0  0  0
    1.5000    0.0000    0.0000 C   0  0  0  0  0  0  0  0  0  0  0  0
    3.0000    0.0000    0.0000 N   0  0  0  0  0  0  0  0  0  0  0  0
    0.7500    1.2990    0.0000 N   0  0  0  0  0  0  0  0  0  0  0  0
   -0.7500    1.2990    0.0000 C   0  0  0  0  0  0  0  0  0  0  0  0
   -1.5000    0.0000    0.0000 N   0  0  0  0  0  0  0  0  0  0  0  0
   -0.7500   -1.2990    0.0000 C   0  0  0  0  0  0  0  0  0  0  0  0
  1  2  1  0
  2  3  1  0
  2  4  1  0
  4  5  1  0
  5  6  2  0
  6  7  1  0
  7  8  2  0
  8  9  1  0
  9 10  2  0
 10 11  1  0
 11 12  1  0
 11 13  2  0
 13 14  1  0
 14 15  2  0
 15 16  1  0
  6 17  1  0
 17 18  2  0
 18 19  1  0
 18 20  1  0
 20 21  2  0
 21 22  1  0
 22 23  2  0
 23  4  1  0
 16  7  1  0
 23 17  1  0
 15  9  1  0
M  END
>  <Compound_ID>  (811) 
CHEMBL1241674

>  <Molecule Name>  (811) 
nan

>  <Molecular Weight>  (811) 
308.35

>  <AlogP>  (811) 
2.84

>  <Smiles>  (811) 
CC(C)n1nc(-c2cc3cc(O)ccc3[nH]2)c2c(N)ncnc21

>  <Standard Type>  (811) 
Inhibition

>  <Standard Relation>  (811) 
'='

>  <Standard Units>  (811) 
%

>  <Standard Value>  (811) 
7.0

>  <Assay ChEMBL ID>  (811) 
CHEMBL1244233

>  <Assay Description>  (811) 
Inhibition of TRKA at 1 uM after 60 mins by FRET assay in presence of 100 uM ATP

>  <BAO Format ID>  (811) 
BAO_0000357

>  <BAO Label>  (811) 
single protein format

>  <Assay Organism>  (811) 
None

>  <Target ChEMBL ID>  (811) 
CHEMBL2815

>  <Target Name>  (811) 
Nerve growth factor receptor Trk-A

>  <Target Organism>  (811) 
Homo sapiens

>  <Target Type>  (811) 
SINGLE PROTEIN

>  <Document ChEMBL ID>  (811) 
CHEMBL1240340

>  <Source Description>  (811) 
Scientific Literature

>  <Document Journal>  (811) 
Nat Chem Biol

>  <Document Year>  (811) 
2008.0

>  <Active>  (811) 
0.0

>  <bits>  (811) 
<rdkit.DataStructs.cDataStructs.ExplicitBitVect object at 0x00000159F79313F0>

>  <Group>  (811) 
G2

$$$$

     RDKit          2D

 22 24  0  0  0  0  0  0  0  0999 V2000
    3.7500   -1.2990    0.0000 C   0  0  0  0  0  0  0  0  0  0  0  0
    3.0000    0.0000    0.0000 O   0  0  0  0  0  0  0  0  0  0  0  0
    1.5000    0.0000    0.0000 C   0  0  0  0  0  0  0  0  0  0  0  0
    0.7500   -1.2990    0.0000 C   0  0  0  0  0  0  0  0  0  0  0  0
   -0.7500   -1.2990    0.0000 C   0  0  0  0  0  0  0  0  0  0  0  0
   -1.5000    0.0000    0.0000 C   0  0  0  0  0  0  0  0  0  0  0  0
   -0.7500    1.2990    0.0000 C   0  0  0  0  0  0  0  0  0  0  0  0
    0.7500    1.2990    0.0000 C   0  0  0  0  0  0  0  0  0  0  0  0
    1.5000    2.5981    0.0000 C   0  0  0  0  0  0  0  0  0  0  0  0
    0.8899    3.9684    0.0000 C   0  0  0  0  0  0  0  0  0  0  0  0
   -0.5773    4.2803    0.0000 N   0  0  0  0  0  0  0  0  0  0  0  0
   -1.0409    5.7068    0.0000 C   0  0  0  0  0  0  0  0  0  0  0  0
   -0.0372    6.8216    0.0000 C   0  0  0  0  0  0  0  0  0  0  0  0
   -0.5007    8.2481    0.0000 C   0  0  0  0  0  0  0  0  0  0  0  0
   -1.9679    8.5600    0.0000 C   0  0  0  0  0  0  0  0  0  0  0  0
   -2.9716    7.4453    0.0000 C   0  0  0  0  0  0  0  0  0  0  0  0
   -2.5081    6.0187    0.0000 C   0  0  0  0  0  0  0  0  0  0  0  0
    2.0046    4.9721    0.0000 C   0  0  0  0  0  0  0  0  0  0  0  0
    1.8478    6.4639    0.0000 O   0  0  0  0  0  0  0  0  0  0  0  0
    3.3037    4.2221    0.0000 N   0  0  0  0  0  0  0  0  0  0  0  0
    2.9918    2.7549    0.0000 C   0  0  0  0  0  0  0  0  0  0  0  0
    3.9955    1.6402    0.0000 O   0  0  0  0  0  0  0  0  0  0  0  0
  1  2  1  0
  2  3  1  0
  3  4  2  0
  4  5  1  0
  5  6  2  0
  6  7  1  0
  7  8  2  0
  8  9  1  0
  9 10  2  0
 10 11  1  0
 11 12  1  0
 12 13  2  0
 13 14  1  0
 14 15  2  0
 15 16  1  0
 16 17  2  0
 10 18  1  0
 18 19  2  0
 18 20  1  0
 20 21  1  0
 21 22  2  0
  8  3  1  0
 21  9  1  0
 17 12  1  0
M  END
>  <Compound_ID>  (812) 
CHEMBL156263

>  <Molecule Name>  (812) 
nan

>  <Molecular Weight>  (812) 
294.31

>  <AlogP>  (812) 
2.17

>  <Smiles>  (812) 
COc1ccccc1C1=C(Nc2ccccc2)C(=O)NC1=O

>  <Standard Type>  (812) 
Inhibition

>  <Standard Relation>  (812) 
'='

>  <Standard Units>  (812) 
%

>  <Standard Value>  (812) 
5.65

>  <Assay ChEMBL ID>  (812) 
CHEMBL1962184

>  <Assay Description>  (812) 
GSK_PKIS: TRKA mean inhibition at 0.1 uM [Nanosyn]

>  <BAO Format ID>  (812) 
BAO_0000357

>  <BAO Label>  (812) 
single protein format

>  <Assay Organism>  (812) 
None

>  <Target ChEMBL ID>  (812) 
CHEMBL2815

>  <Target Name>  (812) 
Nerve growth factor receptor Trk-A

>  <Target Organism>  (812) 
Homo sapiens

>  <Target Type>  (812) 
SINGLE PROTEIN

>  <Document ChEMBL ID>  (812) 
CHEMBL1961873

>  <Source Description>  (812) 
GSK Published Kinase Inhibitor Set

>  <Document Journal>  (812) 
nan

>  <Document Year>  (812) 
nan

>  <Active>  (812) 
0.0

>  <bits>  (812) 
<rdkit.DataStructs.cDataStructs.ExplicitBitVect object at 0x00000159F7930900>

>  <Group>  (812) 
G2

$$$$

     RDKit          2D

 23 26  0  0  0  0  0  0  0  0999 V2000
    3.0000   -7.7942    0.0000 C   0  0  0  0  0  0  0  0  0  0  0  0
    3.7500   -6.4952    0.0000 O   0  0  0  0  0  0  0  0  0  0  0  0
    3.0000   -5.1962    0.0000 C   0  0  0  0  0  0  0  0  0  0  0  0
    1.5000   -5.1962    0.0000 C   0  0  0  0  0  0  0  0  0  0  0  0
    0.7500   -3.8971    0.0000 C   0  0  0  0  0  0  0  0  0  0  0  0
    1.5000   -2.5981    0.0000 C   0  0  0  0  0  0  0  0  0  0  0  0
    0.7500   -1.2990    0.0000 C   0  0  0  0  0  0  0  0  0  0  0  0
    1.5000    0.0000    0.0000 C   0  0  0  0  0  0  0  0  0  0  0  0
    0.7500    1.2990    0.0000 C   0  0  0  0  0  0  0  0  0  0  0  0
   -0.7500    1.2990    0.0000 C   0  0  0  0  0  0  0  0  0  0  0  0
   -1.7537    2.4138    0.0000 C   0  0  0  0  0  0  0  0  0  0  0  0
   -1.4418    3.8810    0.0000 N   0  0  0  0  0  0  0  0  0  0  0  0
   -2.5565    4.8847    0.0000 C   0  0  0  0  0  0  0  0  0  0  0  0
   -3.9831    4.4211    0.0000 O   0  0  0  0  0  0  0  0  0  0  0  0
   -2.2447    6.3519    0.0000 C   0  0  0  0  0  0  0  0  0  0  0  0
   -2.7082    7.7785    0.0000 C   0  0  0  0  0  0  0  0  0  0  0  0
   -1.2410    7.4666    0.0000 C   0  0  0  0  0  0  0  0  0  0  0  0
   -3.1240    1.8037    0.0000 N   0  0  0  0  0  0  0  0  0  0  0  0
   -2.9672    0.3119    0.0000 N   0  0  0  0  0  0  0  0  0  0  0  0
   -1.5000    0.0000    0.0000 C   0  0  0  0  0  0  0  0  0  0  0  0
   -0.7500   -1.2990    0.0000 N   0  0  0  0  0  0  0  0  0  0  0  0
    3.0000   -2.5981    0.0000 C   0  0  0  0  0  0  0  0  0  0  0  0
    3.7500   -3.8971    0.0000 C   0  0  0  0  0  0  0  0  0  0  0  0
  1  2  1  0
  2  3  1  0
  3  4  2  0
  4  5  1  0
  5  6  2  0
  6  7  1  0
  7  8  2  0
  8  9  1  0
  9 10  2  0
 10 11  1  0
 11 12  1  0
 12 13  1  0
 13 14  2  0
 13 15  1  0
 15 16  1  0
 16 17  1  0
 11 18  2  0
 18 19  1  0
 19 20  1  0
 20 21  2  0
  6 22  1  0
 22 23  2  0
 23  3  1  0
 21  7  1  0
 20 10  1  0
 17 15  1  0
M  END
>  <Compound_ID>  (813) 
CHEMBL408732

>  <Molecule Name>  (813) 
nan

>  <Molecular Weight>  (813) 
308.34

>  <AlogP>  (813) 
2.98

>  <Smiles>  (813) 
COc1ccc(-c2ccc3c(NC(=O)C4CC4)n[nH]c3n2)cc1

>  <Standard Type>  (813) 
Inhibition

>  <Standard Relation>  (813) 
'='

>  <Standard Units>  (813) 
%

>  <Standard Value>  (813) 
2.48

>  <Assay ChEMBL ID>  (813) 
CHEMBL1962185

>  <Assay Description>  (813) 
GSK_PKIS: TRKA mean inhibition at 1 uM [Nanosyn]

>  <BAO Format ID>  (813) 
BAO_0000357

>  <BAO Label>  (813) 
single protein format

>  <Assay Organism>  (813) 
None

>  <Target ChEMBL ID>  (813) 
CHEMBL2815

>  <Target Name>  (813) 
Nerve growth factor receptor Trk-A

>  <Target Organism>  (813) 
Homo sapiens

>  <Target Type>  (813) 
SINGLE PROTEIN

>  <Document ChEMBL ID>  (813) 
CHEMBL1961873

>  <Source Description>  (813) 
GSK Published Kinase Inhibitor Set

>  <Document Journal>  (813) 
nan

>  <Document Year>  (813) 
nan

>  <Active>  (813) 
0.0

>  <bits>  (813) 
<rdkit.DataStructs.cDataStructs.ExplicitBitVect object at 0x00000159F7931070>

>  <Group>  (813) 
G2

$$$$

     RDKit          2D

 25 29  0  0  0  0  0  0  0  0999 V2000
    3.3399  -13.9702    0.0000 N   0  0  0  0  0  0  0  0  0  0  0  0
    3.0281  -12.5029    0.0000 C   0  0  0  0  0  0  0  0  0  0  0  0
    1.7701  -11.6860    0.0000 C   0  0  0  0  0  0  0  0  0  0  0  0
    2.5870  -10.4280    0.0000 C   0  0  0  0  0  0  0  0  0  0  0  0
    2.2751   -8.9607    0.0000 O   0  0  0  0  0  0  0  0  0  0  0  0
    0.8486   -8.4972    0.0000 C   0  0  0  0  0  0  0  0  0  0  0  0
   -0.2662   -9.5009    0.0000 C   0  0  0  0  0  0  0  0  0  0  0  0
   -1.6927   -9.0374    0.0000 C   0  0  0  0  0  0  0  0  0  0  0  0
   -2.0046   -7.5702    0.0000 C   0  0  0  0  0  0  0  0  0  0  0  0
   -3.3037   -6.8202    0.0000 N   0  0  0  0  0  0  0  0  0  0  0  0
   -2.9918   -5.3529    0.0000 C   0  0  0  0  0  0  0  0  0  0  0  0
   -1.5000   -5.1962    0.0000 C   0  0  0  0  0  0  0  0  0  0  0  0
   -0.7500   -3.8971    0.0000 C   0  0  0  0  0  0  0  0  0  0  0  0
    0.7500   -3.8971    0.0000 C   0  0  0  0  0  0  0  0  0  0  0  0
    1.5000   -2.5981    0.0000 C   0  0  0  0  0  0  0  0  0  0  0  0
    0.7500   -1.2990    0.0000 C   0  0  0  0  0  0  0  0  0  0  0  0
    1.5000    0.0000    0.0000 C   0  0  0  0  0  0  0  0  0  0  0  0
    0.7500    1.2990    0.0000 N   0  0  0  0  0  0  0  0  0  0  0  0
   -0.7500    1.2990    0.0000 C   0  0  0  0  0  0  0  0  0  0  0  0
   -1.5000    0.0000    0.0000 C   0  0  0  0  0  0  0  0  0  0  0  0
   -0.7500   -1.2990    0.0000 C   0  0  0  0  0  0  0  0  0  0  0  0
   -1.5000   -2.5981    0.0000 C   0  0  0  0  0  0  0  0  0  0  0  0
   -0.8899   -6.5665    0.0000 N   0  0  0  0  0  0  0  0  0  0  0  0
    0.5367   -7.0300    0.0000 N   0  0  0  0  0  0  0  0  0  0  0  0
    3.8450  -11.2449    0.0000 C   0  0  0  0  0  0  0  0  0  0  0  0
  2  1  1  1
  2  3  1  0
  3  4  1  0
  4  5  1  6
  5  6  1  0
  6  7  1  0
  7  8  2  0
  8  9  1  0
  9 10  2  0
 10 11  1  0
 11 12  2  0
 12 13  1  0
 13 14  2  0
 14 15  1  0
 15 16  2  0
 16 17  1  0
 17 18  2  0
 18 19  1  0
 19 20  2  0
 20 21  1  0
 21 22  2  0
 12 23  1  0
 23 24  1  0
  4 25  1  0
 25  2  1  0
 24  6  2  0
 23  9  1  0
 22 13  1  0
 21 16  1  0
M  END
>  <Compound_ID>  (814) 
CHEMBL4094080

>  <Molecule Name>  (814) 
nan

>  <Molecular Weight>  (814) 
331.38

>  <AlogP>  (814) 
2.81

>  <Smiles>  (814) 
N[C@H]1C[C@H](Oc2ccc3ncc(-c4ccc5cnccc5c4)n3n2)C1

>  <Standard Type>  (814) 
Inhibition

>  <Standard Relation>  (814) 
'='

>  <Standard Units>  (814) 
%

>  <Standard Value>  (814) 
17.0

>  <Assay ChEMBL ID>  (814) 
CHEMBL4048664

>  <Assay Description>  (814) 
Inhibition of TRKA (unknown origin) at 1 uM relative to control

>  <BAO Format ID>  (814) 
BAO_0000357

>  <BAO Label>  (814) 
single protein format

>  <Assay Organism>  (814) 
Homo sapiens

>  <Target ChEMBL ID>  (814) 
CHEMBL2815

>  <Target Name>  (814) 
Nerve growth factor receptor Trk-A

>  <Target Organism>  (814) 
Homo sapiens

>  <Target Type>  (814) 
SINGLE PROTEIN

>  <Document ChEMBL ID>  (814) 
CHEMBL4043290

>  <Source Description>  (814) 
Scientific Literature

>  <Document Journal>  (814) 
J Med Chem

>  <Document Year>  (814) 
2018.0

>  <Active>  (814) 
0.0

>  <bits>  (814) 
<rdkit.DataStructs.cDataStructs.ExplicitBitVect object at 0x00000159F7932C70>

>  <Group>  (814) 
G2

$$$$

     RDKit          2D

 29 31  0  0  0  0  0  0  0  0999 V2000
    7.6471   -0.5490    0.0000 C   0  0  0  0  0  0  0  0  0  0  0  0
    6.3481   -1.2990    0.0000 C   0  0  0  0  0  0  0  0  0  0  0  0
    5.0490   -0.5490    0.0000 O   0  0  0  0  0  0  0  0  0  0  0  0
    3.7500   -1.2990    0.0000 P   0  0  0  0  0  0  0  0  0  0  0  0
    2.4510   -2.0490    0.0000 O   0  0  0  0  0  0  0  0  0  0  0  0
    4.5000   -2.5981    0.0000 C   0  0  0  0  0  0  0  0  0  0  0  0
    3.7500   -3.8971    0.0000 C   0  0  0  0  0  0  0  0  0  0  0  0
    3.0000    0.0000    0.0000 C   0  0  0  0  0  0  0  0  0  0  0  0
    1.5000    0.0000    0.0000 C   0  0  0  0  0  0  0  0  0  0  0  0
    0.7500   -1.2990    0.0000 C   0  0  0  0  0  0  0  0  0  0  0  0
   -0.7500   -1.2990    0.0000 C   0  0  0  0  0  0  0  0  0  0  0  0
   -1.5000    0.0000    0.0000 C   0  0  0  0  0  0  0  0  0  0  0  0
   -0.7500    1.2990    0.0000 C   0  0  0  0  0  0  0  0  0  0  0  0
   -1.5000    2.5981    0.0000 N   0  0  0  0  0  0  0  0  0  0  0  0
   -0.7500    3.8971    0.0000 C   0  0  0  0  0  0  0  0  0  0  0  0
    0.7500    3.8971    0.0000 C   0  0  0  0  0  0  0  0  0  0  0  0
    1.5000    5.1962    0.0000 C   0  0  0  0  0  0  0  0  0  0  0  0
    3.0000    5.1962    0.0000 C   0  0  0  0  0  0  0  0  0  0  0  0
    3.7500    3.8971    0.0000 C   0  0  0  0  0  0  0  0  0  0  0  0
    5.2500    3.8971    0.0000 C   0  0  0  0  0  0  0  0  0  0  0  0
    6.0000    5.1962    0.0000 C   0  0  0  0  0  0  0  0  0  0  0  0
    5.2500    6.4952    0.0000 C   0  0  0  0  0  0  0  0  0  0  0  0
    3.7500    6.4952    0.0000 C   0  0  0  0  0  0  0  0  0  0  0  0
    3.0000    7.7942    0.0000 O   0  0  0  0  0  0  0  0  0  0  0  0
    3.7500    9.0933    0.0000 C   0  0  0  0  0  0  0  0  0  0  0  0
    0.7500    6.4952    0.0000 N   0  0  0  0  0  0  0  0  0  0  0  0
   -0.7500    6.4952    0.0000 C   0  0  0  0  0  0  0  0  0  0  0  0
   -1.5000    5.1962    0.0000 N   0  0  0  0  0  0  0  0  0  0  0  0
    0.7500    1.2990    0.0000 C   0  0  0  0  0  0  0  0  0  0  0  0
  1  2  1  0
  2  3  1  0
  3  4  1  0
  4  5  2  0
  4  6  1  0
  6  7  1  0
  4  8  1  0
  8  9  1  0
  9 10  2  0
 10 11  1  0
 11 12  2  0
 12 13  1  0
 13 14  1  0
 14 15  1  0
 15 16  2  0
 16 17  1  0
 17 18  1  0
 18 19  2  0
 19 20  1  0
 20 21  2  0
 21 22  1  0
 22 23  2  0
 23 24  1  0
 24 25  1  0
 17 26  2  0
 26 27  1  0
 27 28  2  0
 13 29  2  0
 29  9  1  0
 28 15  1  0
 23 18  1  0
M  END
>  <Compound_ID>  (815) 
CHEMBL3264107

>  <Molecule Name>  (815) 
nan

>  <Molecular Weight>  (815) 
411.44

>  <AlogP>  (815) 
5.73

>  <Smiles>  (815) 
CCOP(=O)(CC)Cc1cccc(Nc2cc(-c3ccccc3OC)ncn2)c1

>  <Standard Type>  (815) 
Inhibition

>  <Standard Relation>  (815) 
'='

>  <Standard Units>  (815) 
%

>  <Standard Value>  (815) 
8.0

>  <Assay ChEMBL ID>  (815) 
CHEMBL3267961

>  <Assay Description>  (815) 
Inhibition of TrkA (unknown origin) at 1 uM

>  <BAO Format ID>  (815) 
BAO_0000357

>  <BAO Label>  (815) 
single protein format

>  <Assay Organism>  (815) 
Homo sapiens

>  <Target ChEMBL ID>  (815) 
CHEMBL2815

>  <Target Name>  (815) 
Nerve growth factor receptor Trk-A

>  <Target Organism>  (815) 
Homo sapiens

>  <Target Type>  (815) 
SINGLE PROTEIN

>  <Document ChEMBL ID>  (815) 
CHEMBL3259517

>  <Source Description>  (815) 
Scientific Literature

>  <Document Journal>  (815) 
J Med Chem

>  <Document Year>  (815) 
2014.0

>  <Active>  (815) 
0.0

>  <bits>  (815) 
<rdkit.DataStructs.cDataStructs.ExplicitBitVect object at 0x00000159F7932F10>

>  <Group>  (815) 
G2

$$$$

     RDKit          2D

 39 43  0  0  0  0  0  0  0  0999 V2000
   -1.3632  -12.1594    0.0000 C   0  0  0  0  0  0  0  0  0  0  0  0
   -1.2064  -10.6676    0.0000 S   0  0  0  0  0  0  0  0  0  0  0  0
    0.2854  -10.8244    0.0000 O   0  0  0  0  0  0  0  0  0  0  0  0
   -2.6982  -10.5109    0.0000 O   0  0  0  0  0  0  0  0  0  0  0  0
   -1.0496   -9.1759    0.0000 C   0  0  0  0  0  0  0  0  0  0  0  0
    0.3207   -8.5658    0.0000 C   0  0  0  0  0  0  0  0  0  0  0  0
    0.4775   -7.0740    0.0000 N   0  0  0  0  0  0  0  0  0  0  0  0
    1.8478   -6.4639    0.0000 C   0  0  0  0  0  0  0  0  0  0  0  0
    2.0046   -4.9721    0.0000 C   0  0  0  0  0  0  0  0  0  0  0  0
    3.3037   -4.2221    0.0000 C   0  0  0  0  0  0  0  0  0  0  0  0
    2.9918   -2.7549    0.0000 C   0  0  0  0  0  0  0  0  0  0  0  0
    1.5000   -2.5981    0.0000 C   0  0  0  0  0  0  0  0  0  0  0  0
    0.7500   -1.2990    0.0000 C   0  0  0  0  0  0  0  0  0  0  0  0
    1.5000    0.0000    0.0000 C   0  0  0  0  0  0  0  0  0  0  0  0
    0.7500    1.2990    0.0000 C   0  0  0  0  0  0  0  0  0  0  0  0
   -0.7500    1.2990    0.0000 C   0  0  0  0  0  0  0  0  0  0  0  0
   -1.5000    2.5981    0.0000 N   0  0  0  0  0  0  0  0  0  0  0  0
   -3.0000    2.5981    0.0000 C   0  0  0  0  0  0  0  0  0  0  0  0
   -3.7500    1.2990    0.0000 N   0  0  0  0  0  0  0  0  0  0  0  0
   -3.0000    0.0000    0.0000 C   0  0  0  0  0  0  0  0  0  0  0  0
   -3.7500   -1.2990    0.0000 N   0  0  0  0  0  0  0  0  0  0  0  0
   -5.2500   -1.2990    0.0000 C   0  0  0  0  0  0  0  0  0  0  0  0
   -6.0000    0.0000    0.0000 C   0  0  0  0  0  0  0  0  0  0  0  0
   -7.5000    0.0000    0.0000 C   0  0  0  0  0  0  0  0  0  0  0  0
   -8.2500   -1.2990    0.0000 C   0  0  0  0  0  0  0  0  0  0  0  0
   -9.7500   -1.2990    0.0000 O   0  0  0  0  0  0  0  0  0  0  0  0
  -10.5000    0.0000    0.0000 C   0  0  0  0  0  0  0  0  0  0  0  0
  -12.0000    0.0000    0.0000 C   0  0  0  0  0  0  0  0  0  0  0  0
  -12.7500    1.2990    0.0000 C   0  0  0  0  0  0  0  0  0  0  0  0
  -14.2500    1.2990    0.0000 C   0  0  0  0  0  0  0  0  0  0  0  0
  -15.0000    0.0000    0.0000 C   0  0  0  0  0  0  0  0  0  0  0  0
  -14.2500   -1.2990    0.0000 C   0  0  0  0  0  0  0  0  0  0  0  0
  -12.7500   -1.2990    0.0000 C   0  0  0  0  0  0  0  0  0  0  0  0
   -7.5000   -2.5981    0.0000 C   0  0  0  0  0  0  0  0  0  0  0  0
   -8.2500   -3.8971    0.0000 Cl  0  0  0  0  0  0  0  0  0  0  0  0
   -6.0000   -2.5981    0.0000 C   0  0  0  0  0  0  0  0  0  0  0  0
   -1.5000    0.0000    0.0000 C   0  0  0  0  0  0  0  0  0  0  0  0
   -0.7500   -1.2990    0.0000 C   0  0  0  0  0  0  0  0  0  0  0  0
    0.8899   -3.9684    0.0000 O   0  0  0  0  0  0  0  0  0  0  0  0
  1  2  1  0
  2  3  2  0
  2  4  2  0
  2  5  1  0
  5  6  1  0
  6  7  1  0
  7  8  1  0
  8  9  1  0
  9 10  2  0
 10 11  1  0
 11 12  2  0
 12 13  1  0
 13 14  2  0
 14 15  1  0
 15 16  2  0
 16 17  1  0
 17 18  2  0
 18 19  1  0
 19 20  2  0
 20 21  1  0
 21 22  1  0
 22 23  2  0
 23 24  1  0
 24 25  2  0
 25 26  1  0
 26 27  1  0
 27 28  1  0
 28 29  2  0
 29 30  1  0
 30 31  2  0
 31 32  1  0
 32 33  2  0
 25 34  1  0
 34 35  1  0
 34 36  2  0
 20 37  1  0
 37 38  2  0
 12 39  1  0
 39  9  1  0
 38 13  1  0
 37 16  1  0
 36 22  1  0
 33 28  1  0
M  END
>  <Compound_ID>  (816) 
CHEMBL529066

>  <Molecule Name>  (816) 
GW574783B

>  <Molecular Weight>  (816) 
599.54

>  <AlogP>  (816) 
6.0

>  <Smiles>  (816) 
CS(=O)(=O)CCNCc1ccc(-c2ccc3ncnc(Nc4ccc(OCc5ccccc5)c(Cl)c4)c3c2)o1

>  <Standard Type>  (816) 
Inhibition

>  <Standard Relation>  (816) 
'='

>  <Standard Units>  (816) 
%

>  <Standard Value>  (816) 
4.84

>  <Assay ChEMBL ID>  (816) 
CHEMBL1962185

>  <Assay Description>  (816) 
GSK_PKIS: TRKA mean inhibition at 1 uM [Nanosyn]

>  <BAO Format ID>  (816) 
BAO_0000357

>  <BAO Label>  (816) 
single protein format

>  <Assay Organism>  (816) 
None

>  <Target ChEMBL ID>  (816) 
CHEMBL2815

>  <Target Name>  (816) 
Nerve growth factor receptor Trk-A

>  <Target Organism>  (816) 
Homo sapiens

>  <Target Type>  (816) 
SINGLE PROTEIN

>  <Document ChEMBL ID>  (816) 
CHEMBL1961873

>  <Source Description>  (816) 
GSK Published Kinase Inhibitor Set

>  <Document Journal>  (816) 
nan

>  <Document Year>  (816) 
nan

>  <Active>  (816) 
0.0

>  <bits>  (816) 
<rdkit.DataStructs.cDataStructs.ExplicitBitVect object at 0x00000159F7933370>

>  <Group>  (816) 
G2

$$$$

     RDKit          2D

 27 30  0  0  0  0  0  0  0  0999 V2000
    3.7500   -1.2990    0.0000 N   0  0  0  0  0  0  0  0  0  0  0  0
    3.0000    0.0000    0.0000 C   0  0  0  0  0  0  0  0  0  0  0  0
    1.5000    0.0000    0.0000 C   0  0  0  0  0  0  0  0  0  0  0  0
    0.7500   -1.2990    0.0000 C   0  0  0  0  0  0  0  0  0  0  0  0
   -0.7500   -1.2990    0.0000 C   0  0  0  0  0  0  0  0  0  0  0  0
   -1.5000    0.0000    0.0000 C   0  0  0  0  0  0  0  0  0  0  0  0
   -3.0000    0.0000    0.0000 C   0  0  0  0  0  0  0  0  0  0  0  0
   -3.8817   -1.2135    0.0000 N   0  0  0  0  0  0  0  0  0  0  0  0
   -5.3083   -0.7500    0.0000 C   0  0  0  0  0  0  0  0  0  0  0  0
   -6.5218   -1.6317    0.0000 C   0  0  0  0  0  0  0  0  0  0  0  0
   -7.8921   -1.0216    0.0000 C   0  0  0  0  0  0  0  0  0  0  0  0
   -9.1056   -1.9033    0.0000 C   0  0  0  0  0  0  0  0  0  0  0  0
   -8.9488   -3.3950    0.0000 C   0  0  0  0  0  0  0  0  0  0  0  0
  -10.1624   -4.2767    0.0000 Cl  0  0  0  0  0  0  0  0  0  0  0  0
   -7.5785   -4.0051    0.0000 C   0  0  0  0  0  0  0  0  0  0  0  0
   -7.4217   -5.4969    0.0000 O   0  0  0  0  0  0  0  0  0  0  0  0
   -6.3650   -3.1235    0.0000 C   0  0  0  0  0  0  0  0  0  0  0  0
   -5.3083    0.7500    0.0000 C   0  0  0  0  0  0  0  0  0  0  0  0
   -6.5218    1.6317    0.0000 C   0  0  0  0  0  0  0  0  0  0  0  0
   -6.3650    3.1235    0.0000 C   0  0  0  0  0  0  0  0  0  0  0  0
   -7.5785    4.0051    0.0000 C   0  0  0  0  0  0  0  0  0  0  0  0
   -8.9488    3.3950    0.0000 N   0  0  0  0  0  0  0  0  0  0  0  0
   -9.1056    1.9033    0.0000 C   0  0  0  0  0  0  0  0  0  0  0  0
   -7.8921    1.0216    0.0000 C   0  0  0  0  0  0  0  0  0  0  0  0
   -3.8817    1.2135    0.0000 N   0  0  0  0  0  0  0  0  0  0  0  0
   -0.7500    1.2990    0.0000 C   0  0  0  0  0  0  0  0  0  0  0  0
    0.7500    1.2990    0.0000 C   0  0  0  0  0  0  0  0  0  0  0  0
  1  2  1  0
  2  3  1  0
  3  4  2  0
  4  5  1  0
  5  6  2  0
  6  7  1  0
  7  8  2  0
  8  9  1  0
  9 10  1  0
 10 11  2  0
 11 12  1  0
 12 13  2  0
 13 14  1  0
 13 15  1  0
 15 16  1  0
 15 17  2  0
  9 18  2  0
 18 19  1  0
 19 20  2  0
 20 21  1  0
 21 22  2  0
 22 23  1  0
 23 24  2  0
 18 25  1  0
  6 26  1  0
 26 27  2  0
 27  3  1  0
 25  7  1  0
 17 10  1  0
 24 19  1  0
M  END
>  <Compound_ID>  (817) 
CHEMBL1909412

>  <Molecule Name>  (817) 
nan

>  <Molecular Weight>  (817) 
413.31

>  <AlogP>  (817) 
4.62

>  <Smiles>  (817) 
NCc1ccc(-c2nc(-c3ccc(Cl)c(O)c3)c(-c3ccncc3)[nH]2)cc1

>  <Standard Type>  (817) 
Inhibition

>  <Standard Relation>  (817) 
'='

>  <Standard Units>  (817) 
%

>  <Standard Value>  (817) 
-4.35

>  <Assay ChEMBL ID>  (817) 
CHEMBL1962184

>  <Assay Description>  (817) 
GSK_PKIS: TRKA mean inhibition at 0.1 uM [Nanosyn]

>  <BAO Format ID>  (817) 
BAO_0000357

>  <BAO Label>  (817) 
single protein format

>  <Assay Organism>  (817) 
None

>  <Target ChEMBL ID>  (817) 
CHEMBL2815

>  <Target Name>  (817) 
Nerve growth factor receptor Trk-A

>  <Target Organism>  (817) 
Homo sapiens

>  <Target Type>  (817) 
SINGLE PROTEIN

>  <Document ChEMBL ID>  (817) 
CHEMBL1961873

>  <Source Description>  (817) 
GSK Published Kinase Inhibitor Set

>  <Document Journal>  (817) 
nan

>  <Document Year>  (817) 
nan

>  <Active>  (817) 
0.0

>  <bits>  (817) 
<rdkit.DataStructs.cDataStructs.ExplicitBitVect object at 0x00000159F7931D90>

>  <Group>  (817) 
G2

$$$$

     RDKit          2D

 33 38  0  0  0  0  0  0  0  0999 V2000
    3.0000    0.0000    0.0000 C   0  0  0  0  0  0  0  0  0  0  0  0
    1.5000    0.0000    0.0000 C   0  0  0  0  0  0  0  0  0  0  0  0
    0.7500   -1.2990    0.0000 C   0  0  0  0  0  0  0  0  0  0  0  0
   -0.7500   -1.2990    0.0000 C   0  0  0  0  0  0  0  0  0  0  0  0
   -1.5000    0.0000    0.0000 C   0  0  0  0  0  0  0  0  0  0  0  0
   -2.9672    0.3119    0.0000 C   0  0  0  0  0  0  0  0  0  0  0  0
   -3.1240    1.8037    0.0000 C   0  0  0  0  0  0  0  0  0  0  0  0
   -4.4231    2.5537    0.0000 C   0  0  0  0  0  0  0  0  0  0  0  0
   -4.5798    4.0454    0.0000 N   0  0  0  0  0  0  0  0  0  0  0  0
   -6.0471    4.3573    0.0000 N   0  0  0  0  0  0  0  0  0  0  0  0
   -6.7971    3.0583    0.0000 C   0  0  0  0  0  0  0  0  0  0  0  0
   -8.2643    2.7464    0.0000 C   0  0  0  0  0  0  0  0  0  0  0  0
   -8.7278    1.3198    0.0000 C   0  0  0  0  0  0  0  0  0  0  0  0
   -7.7241    0.2051    0.0000 C   0  0  0  0  0  0  0  0  0  0  0  0
   -8.1876   -1.2215    0.0000 N   0  0  0  0  0  0  0  0  0  0  0  0
   -9.6549   -1.5334    0.0000 C   0  0  0  0  0  0  0  0  0  0  0  0
  -10.6586   -0.4186    0.0000 C   0  0  0  0  0  0  0  0  0  0  0  0
  -12.1258   -0.7305    0.0000 C   0  0  0  0  0  0  0  0  0  0  0  0
  -12.5893   -2.1571    0.0000 N   0  0  0  0  0  0  0  0  0  0  0  0
  -14.0565   -2.4690    0.0000 C   0  0  0  0  0  0  0  0  0  0  0  0
  -15.0602   -1.3542    0.0000 C   0  0  0  0  0  0  0  0  0  0  0  0
  -14.5967    0.0723    0.0000 C   0  0  0  0  0  0  0  0  0  0  0  0
  -15.6004    1.1871    0.0000 C   0  0  0  0  0  0  0  0  0  0  0  0
  -17.0676    0.8752    0.0000 C   0  0  0  0  0  0  0  0  0  0  0  0
  -17.5311   -0.5514    0.0000 C   0  0  0  0  0  0  0  0  0  0  0  0
  -16.5274   -1.6661    0.0000 C   0  0  0  0  0  0  0  0  0  0  0  0
  -11.5856   -3.2718    0.0000 C   0  0  0  0  0  0  0  0  0  0  0  0
  -10.1184   -2.9599    0.0000 C   0  0  0  0  0  0  0  0  0  0  0  0
   -6.2569    0.5170    0.0000 C   0  0  0  0  0  0  0  0  0  0  0  0
   -5.7934    1.9435    0.0000 C   0  0  0  0  0  0  0  0  0  0  0  0
   -1.7537    2.4138    0.0000 N   0  0  0  0  0  0  0  0  0  0  0  0
   -0.7500    1.2990    0.0000 C   0  0  0  0  0  0  0  0  0  0  0  0
    0.7500    1.2990    0.0000 C   0  0  0  0  0  0  0  0  0  0  0  0
  1  2  1  0
  2  3  2  0
  3  4  1  0
  4  5  2  0
  5  6  1  0
  6  7  2  0
  7  8  1  0
  8  9  2  0
  9 10  1  0
 10 11  1  0
 11 12  2  0
 12 13  1  0
 13 14  2  0
 14 15  1  0
 15 16  1  0
 16 17  1  0
 17 18  1  0
 18 19  1  0
 19 20  1  0
 20 21  1  0
 21 22  2  0
 22 23  1  0
 23 24  2  0
 24 25  1  0
 25 26  2  0
 19 27  1  0
 27 28  1  0
 14 29  1  0
 29 30  2  0
  7 31  1  0
 31 32  1  0
 32 33  2  0
 33  2  1  0
 32  5  1  0
 30  8  1  0
 30 11  1  0
 28 16  1  0
 26 21  1  0
M  END
>  <Compound_ID>  (818) 
CHEMBL1684543

>  <Molecule Name>  (818) 
nan

>  <Molecular Weight>  (818) 
435.58

>  <AlogP>  (818) 
6.1

>  <Smiles>  (818) 
Cc1ccc2cc(-c3n[nH]c4ccc(NC5CCN(Cc6ccccc6)CC5)cc34)[nH]c2c1

>  <Standard Type>  (818) 
Inhibition

>  <Standard Relation>  (818) 
'='

>  <Standard Units>  (818) 
%

>  <Standard Value>  (818) 
10.0

>  <Assay ChEMBL ID>  (818) 
CHEMBL1685880

>  <Assay Description>  (818) 
Inhibition of TrkA at 0.1 uM

>  <BAO Format ID>  (818) 
BAO_0000357

>  <BAO Label>  (818) 
single protein format

>  <Assay Organism>  (818) 
None

>  <Target ChEMBL ID>  (818) 
CHEMBL2815

>  <Target Name>  (818) 
Nerve growth factor receptor Trk-A

>  <Target Organism>  (818) 
Homo sapiens

>  <Target Type>  (818) 
SINGLE PROTEIN

>  <Document ChEMBL ID>  (818) 
CHEMBL1681705

>  <Source Description>  (818) 
Scientific Literature

>  <Document Journal>  (818) 
Bioorg Med Chem Lett

>  <Document Year>  (818) 
2011.0

>  <Active>  (818) 
0.0

>  <bits>  (818) 
<rdkit.DataStructs.cDataStructs.ExplicitBitVect object at 0x00000159F7931C40>

>  <Group>  (818) 
G2

$$$$

     RDKit          2D

 38 41  0  0  0  0  0  0  0  0999 V2000
   -2.5981   -8.1073    0.0000 C   0  0  0  0  0  0  0  0  0  0  0  0
   -1.2990   -7.3573    0.0000 O   0  0  0  0  0  0  0  0  0  0  0  0
   -1.2990   -5.8573    0.0000 C   0  0  0  0  0  0  0  0  0  0  0  0
   -2.5981   -5.1073    0.0000 O   0  0  0  0  0  0  0  0  0  0  0  0
   -0.0000   -5.1073    0.0000 N   0  0  0  0  0  0  0  0  0  0  0  0
   -0.0000   -3.6073    0.0000 C   0  0  0  0  0  0  0  0  0  0  0  0
    1.2135   -2.7256    0.0000 N   0  0  0  0  0  0  0  0  0  0  0  0
    0.7500   -1.2990    0.0000 C   0  0  0  0  0  0  0  0  0  0  0  0
    1.5000    0.0000    0.0000 C   0  0  0  0  0  0  0  0  0  0  0  0
    0.7500    1.2990    0.0000 C   0  0  0  0  0  0  0  0  0  0  0  0
   -0.7500    1.2990    0.0000 C   0  0  0  0  0  0  0  0  0  0  0  0
   -1.5000    2.5981    0.0000 S   0  0  0  0  0  0  0  0  0  0  0  0
   -2.7990    1.8481    0.0000 O   0  0  0  0  0  0  0  0  0  0  0  0
   -0.2010    3.3481    0.0000 O   0  0  0  0  0  0  0  0  0  0  0  0
   -2.2500    3.8971    0.0000 C   0  0  0  0  0  0  0  0  0  0  0  0
   -1.5000    5.1962    0.0000 C   0  0  0  0  0  0  0  0  0  0  0  0
   -2.2500    6.4952    0.0000 C   0  0  0  0  0  0  0  0  0  0  0  0
   -3.7500    6.4952    0.0000 C   0  0  0  0  0  0  0  0  0  0  0  0
   -4.5000    7.7942    0.0000 N   0  0  0  0  0  0  0  0  0  0  0  0
   -3.7500    9.0933    0.0000 C   0  0  0  0  0  0  0  0  0  0  0  0
   -2.2500    9.0933    0.0000 O   0  0  0  0  0  0  0  0  0  0  0  0
   -4.5000   10.3923    0.0000 N   0  0  0  0  0  0  0  0  0  0  0  0
   -3.7500   11.6913    0.0000 C   0  0  0  0  0  0  0  0  0  0  0  0
   -2.2500   11.6913    0.0000 C   0  0  0  0  0  0  0  0  0  0  0  0
   -1.5000   12.9904    0.0000 C   0  0  0  0  0  0  0  0  0  0  0  0
    0.0000   12.9904    0.0000 C   0  0  0  0  0  0  0  0  0  0  0  0
    1.5000   12.9904    0.0000 F   0  0  0  0  0  0  0  0  0  0  0  0
    0.0000   11.4904    0.0000 F   0  0  0  0  0  0  0  0  0  0  0  0
   -0.0000   14.4904    0.0000 F   0  0  0  0  0  0  0  0  0  0  0  0
   -2.2500   14.2894    0.0000 C   0  0  0  0  0  0  0  0  0  0  0  0
   -3.7500   14.2894    0.0000 C   0  0  0  0  0  0  0  0  0  0  0  0
   -4.5000   12.9904    0.0000 C   0  0  0  0  0  0  0  0  0  0  0  0
   -6.0000   12.9904    0.0000 F   0  0  0  0  0  0  0  0  0  0  0  0
   -4.5000    5.1962    0.0000 C   0  0  0  0  0  0  0  0  0  0  0  0
   -3.7500    3.8971    0.0000 C   0  0  0  0  0  0  0  0  0  0  0  0
   -1.5000    0.0000    0.0000 C   0  0  0  0  0  0  0  0  0  0  0  0
   -0.7500   -1.2990    0.0000 C   0  0  0  0  0  0  0  0  0  0  0  0
   -1.2135   -2.7256    0.0000 N   0  0  0  0  0  0  0  0  0  0  0  0
  1  2  1  0
  2  3  1  0
  3  4  2  0
  3  5  1  0
  5  6  1  0
  6  7  2  0
  7  8  1  0
  8  9  2  0
  9 10  1  0
 10 11  2  0
 11 12  1  0
 12 13  2  0
 12 14  2  0
 12 15  1  0
 15 16  2  0
 16 17  1  0
 17 18  2  0
 18 19  1  0
 19 20  1  0
 20 21  2  0
 20 22  1  0
 22 23  1  0
 23 24  2  0
 24 25  1  0
 25 26  1  0
 26 27  1  0
 26 28  1  0
 26 29  1  0
 25 30  2  0
 30 31  1  0
 31 32  2  0
 32 33  1  0
 18 34  1  0
 34 35  2  0
 11 36  1  0
 36 37  2  0
 37 38  1  0
 38  6  1  0
 37  8  1  0
 35 15  1  0
 32 23  1  0
M  END
>  <Compound_ID>  (819) 
CHEMBL1909367

>  <Molecule Name>  (819) 
GW680908A

>  <Molecular Weight>  (819) 
587.94

>  <AlogP>  (819) 
5.38

>  <Smiles>  (819) 
COC(=O)Nc1nc2ccc(S(=O)(=O)c3ccc(NC(=O)Nc4cc(C(F)(F)F)ccc4F)cc3)cc2[nH]1

>  <Standard Type>  (819) 
Inhibition

>  <Standard Relation>  (819) 
'='

>  <Standard Units>  (819) 
%

>  <Standard Value>  (819) 
1.94

>  <Assay ChEMBL ID>  (819) 
CHEMBL1962184

>  <Assay Description>  (819) 
GSK_PKIS: TRKA mean inhibition at 0.1 uM [Nanosyn]

>  <BAO Format ID>  (819) 
BAO_0000357

>  <BAO Label>  (819) 
single protein format

>  <Assay Organism>  (819) 
None

>  <Target ChEMBL ID>  (819) 
CHEMBL2815

>  <Target Name>  (819) 
Nerve growth factor receptor Trk-A

>  <Target Organism>  (819) 
Homo sapiens

>  <Target Type>  (819) 
SINGLE PROTEIN

>  <Document ChEMBL ID>  (819) 
CHEMBL1961873

>  <Source Description>  (819) 
GSK Published Kinase Inhibitor Set

>  <Document Journal>  (819) 
nan

>  <Document Year>  (819) 
nan

>  <Active>  (819) 
0.0

>  <bits>  (819) 
<rdkit.DataStructs.cDataStructs.ExplicitBitVect object at 0x00000159F7930660>

>  <Group>  (819) 
G2

$$$$

     RDKit          2D

 27 30  0  0  0  0  0  0  0  0999 V2000
   -4.6904   -6.5871    0.0000 N   0  0  0  0  0  0  0  0  0  0  0  0
   -4.3786   -5.1199    0.0000 C   0  0  0  0  0  0  0  0  0  0  0  0
   -5.4933   -4.1162    0.0000 N   0  0  0  0  0  0  0  0  0  0  0  0
   -5.1814   -2.6490    0.0000 C   0  0  0  0  0  0  0  0  0  0  0  0
   -3.7548   -2.1855    0.0000 C   0  0  0  0  0  0  0  0  0  0  0  0
   -2.6401   -3.1891    0.0000 C   0  0  0  0  0  0  0  0  0  0  0  0
   -1.2135   -2.7256    0.0000 C   0  0  0  0  0  0  0  0  0  0  0  0
   -0.0000   -3.6073    0.0000 C   0  0  0  0  0  0  0  0  0  0  0  0
   -0.0000   -5.1073    0.0000 C   0  0  0  0  0  0  0  0  0  0  0  0
   -1.2990   -5.8573    0.0000 C   0  0  0  0  0  0  0  0  0  0  0  0
   -1.2990   -7.3573    0.0000 C   0  0  0  0  0  0  0  0  0  0  0  0
   -0.0000   -8.1073    0.0000 C   0  0  0  0  0  0  0  0  0  0  0  0
    0.0000   -9.6073    0.0000 F   0  0  0  0  0  0  0  0  0  0  0  0
    1.2990   -7.3573    0.0000 C   0  0  0  0  0  0  0  0  0  0  0  0
    1.2990   -5.8573    0.0000 C   0  0  0  0  0  0  0  0  0  0  0  0
    1.2135   -2.7256    0.0000 N   0  0  0  0  0  0  0  0  0  0  0  0
    0.7500   -1.2990    0.0000 N   0  0  0  0  0  0  0  0  0  0  0  0
    1.5000    0.0000    0.0000 C   0  0  0  0  0  0  0  0  0  0  0  0
    0.7500    1.2990    0.0000 C   0  0  0  0  0  0  0  0  0  0  0  0
    1.5000    2.5981    0.0000 C   0  0  0  0  0  0  0  0  0  0  0  0
    2.2500    3.8971    0.0000 F   0  0  0  0  0  0  0  0  0  0  0  0
    2.7990    1.8481    0.0000 F   0  0  0  0  0  0  0  0  0  0  0  0
    0.2010    3.3481    0.0000 F   0  0  0  0  0  0  0  0  0  0  0  0
   -0.7500    1.2990    0.0000 C   0  0  0  0  0  0  0  0  0  0  0  0
   -1.5000    0.0000    0.0000 C   0  0  0  0  0  0  0  0  0  0  0  0
   -0.7500   -1.2990    0.0000 C   0  0  0  0  0  0  0  0  0  0  0  0
   -2.9520   -4.6564    0.0000 N   0  0  0  0  0  0  0  0  0  0  0  0
  1  2  1  0
  2  3  2  0
  3  4  1  0
  4  5  2  0
  5  6  1  0
  6  7  1  0
  7  8  1  0
  8  9  1  0
  9 10  2  0
 10 11  1  0
 11 12  2  0
 12 13  1  0
 12 14  1  0
 14 15  2  0
  8 16  2  0
 16 17  1  0
 17 18  1  0
 18 19  2  0
 19 20  1  0
 20 21  1  0
 20 22  1  0
 20 23  1  0
 19 24  1  0
 24 25  2  0
 25 26  1  0
  6 27  2  0
 27  2  1  0
 26  7  2  0
 15  9  1  0
 26 17  1  0
M  END
>  <Compound_ID>  (820) 
CHEMBL1909402

>  <Molecule Name>  (820) 
GW568326X

>  <Molecular Weight>  (820) 
373.31

>  <AlogP>  (820) 
4.2

>  <Smiles>  (820) 
Nc1nccc(-c2c(-c3ccc(F)cc3)nn3cc(C(F)(F)F)ccc23)n1

>  <Standard Type>  (820) 
Inhibition

>  <Standard Relation>  (820) 
'='

>  <Standard Units>  (820) 
%

>  <Standard Value>  (820) 
-2.97

>  <Assay ChEMBL ID>  (820) 
CHEMBL1962184

>  <Assay Description>  (820) 
GSK_PKIS: TRKA mean inhibition at 0.1 uM [Nanosyn]

>  <BAO Format ID>  (820) 
BAO_0000357

>  <BAO Label>  (820) 
single protein format

>  <Assay Organism>  (820) 
None

>  <Target ChEMBL ID>  (820) 
CHEMBL2815

>  <Target Name>  (820) 
Nerve growth factor receptor Trk-A

>  <Target Organism>  (820) 
Homo sapiens

>  <Target Type>  (820) 
SINGLE PROTEIN

>  <Document ChEMBL ID>  (820) 
CHEMBL1961873

>  <Source Description>  (820) 
GSK Published Kinase Inhibitor Set

>  <Document Journal>  (820) 
nan

>  <Document Year>  (820) 
nan

>  <Active>  (820) 
0.0

>  <bits>  (820) 
<rdkit.DataStructs.cDataStructs.ExplicitBitVect object at 0x00000159F79328F0>

>  <Group>  (820) 
G2

$$$$

     RDKit          2D

 33 35  0  0  0  0  0  0  0  0999 V2000
    3.0000    0.0000    0.0000 C   0  0  0  0  0  0  0  0  0  0  0  0
    1.5000    0.0000    0.0000 C   0  0  0  0  0  0  0  0  0  0  0  0
    0.7500   -1.2990    0.0000 C   0  0  0  0  0  0  0  0  0  0  0  0
   -0.7500   -1.2990    0.0000 C   0  0  0  0  0  0  0  0  0  0  0  0
   -1.5000    0.0000    0.0000 C   0  0  0  0  0  0  0  0  0  0  0  0
   -0.7500    1.2990    0.0000 C   0  0  0  0  0  0  0  0  0  0  0  0
   -1.5000    2.5981    0.0000 N   0  0  0  0  0  0  0  0  0  0  0  0
   -0.7500    3.8971    0.0000 C   0  0  0  0  0  0  0  0  0  0  0  0
   -3.0000    2.5981    0.0000 C   0  0  0  0  0  0  0  0  0  0  0  0
   -3.7500    3.8971    0.0000 C   0  0  0  0  0  0  0  0  0  0  0  0
   -5.2500    3.8971    0.0000 C   0  0  0  0  0  0  0  0  0  0  0  0
   -6.0000    5.1962    0.0000 N   0  0  0  0  0  0  0  0  0  0  0  0
   -5.2500    6.4952    0.0000 C   0  0  0  0  0  0  0  0  0  0  0  0
   -3.7500    6.4952    0.0000 C   0  0  0  0  0  0  0  0  0  0  0  0
   -3.0000    7.7942    0.0000 C   0  0  0  0  0  0  0  0  0  0  0  0
   -3.7500    9.0933    0.0000 C   0  0  0  0  0  0  0  0  0  0  0  0
   -5.2500    9.0933    0.0000 C   0  0  0  0  0  0  0  0  0  0  0  0
   -6.0000   10.3923    0.0000 C   0  0  0  0  0  0  0  0  0  0  0  0
   -7.5000   10.3923    0.0000 O   0  0  0  0  0  0  0  0  0  0  0  0
   -5.2500   11.6913    0.0000 N   0  0  0  0  0  0  0  0  0  0  0  0
   -6.0000   12.9904    0.0000 C   0  0  0  0  0  0  0  0  0  0  0  0
   -7.5000   12.9904    0.0000 C   0  0  0  0  0  0  0  0  0  0  0  0
   -8.2500   14.2894    0.0000 C   0  0  0  0  0  0  0  0  0  0  0  0
   -8.2500   11.6913    0.0000 C   0  0  0  0  0  0  0  0  0  0  0  0
   -3.7500   11.6913    0.0000 C   0  0  0  0  0  0  0  0  0  0  0  0
   -3.0000   12.9904    0.0000 C   0  0  0  0  0  0  0  0  0  0  0  0
   -1.5000   12.9904    0.0000 C   0  0  0  0  0  0  0  0  0  0  0  0
   -3.7500   14.2894    0.0000 C   0  0  0  0  0  0  0  0  0  0  0  0
   -6.0000    7.7942    0.0000 C   0  0  0  0  0  0  0  0  0  0  0  0
   -6.0000    2.5981    0.0000 N   0  0  0  0  0  0  0  0  0  0  0  0
   -5.2500    1.2990    0.0000 C   0  0  0  0  0  0  0  0  0  0  0  0
   -3.7500    1.2990    0.0000 N   0  0  0  0  0  0  0  0  0  0  0  0
    0.7500    1.2990    0.0000 C   0  0  0  0  0  0  0  0  0  0  0  0
  1  2  1  0
  2  3  2  0
  3  4  1  0
  4  5  2  0
  5  6  1  0
  6  7  1  0
  7  8  1  0
  7  9  1  0
  9 10  2  0
 10 11  1  0
 11 12  1  0
 12 13  1  0
 13 14  2  0
 14 15  1  0
 15 16  2  0
 16 17  1  0
 17 18  1  0
 18 19  2  0
 18 20  1  0
 20 21  1  0
 21 22  1  0
 22 23  1  0
 22 24  1  0
 20 25  1  0
 25 26  1  0
 26 27  1  0
 26 28  1  0
 17 29  2  0
 11 30  2  0
 30 31  1  0
 31 32  2  0
  6 33  2  0
 33  2  1  0
 32  9  1  0
 29 13  1  0
M  END
>  <Compound_ID>  (821) 
CHEMBL484707

>  <Molecule Name>  (821) 
nan

>  <Molecular Weight>  (821) 
445.61

>  <AlogP>  (821) 
6.05

>  <Smiles>  (821) 
Cc1cccc(N(C)c2cc(Nc3cccc(C(=O)N(CC(C)C)CC(C)C)c3)ncn2)c1

>  <Standard Type>  (821) 
Inhibition

>  <Standard Relation>  (821) 
'='

>  <Standard Units>  (821) 
%

>  <Standard Value>  (821) 
9.0

>  <Assay ChEMBL ID>  (821) 
CHEMBL965679

>  <Assay Description>  (821) 
Inhibition of TrkA at 10 uM by HTRF assay relative to control

>  <BAO Format ID>  (821) 
BAO_0000357

>  <BAO Label>  (821) 
single protein format

>  <Assay Organism>  (821) 
None

>  <Target ChEMBL ID>  (821) 
CHEMBL2815

>  <Target Name>  (821) 
Nerve growth factor receptor Trk-A

>  <Target Organism>  (821) 
Homo sapiens

>  <Target Type>  (821) 
SINGLE PROTEIN

>  <Document ChEMBL ID>  (821) 
CHEMBL1150387

>  <Source Description>  (821) 
Scientific Literature

>  <Document Journal>  (821) 
J Med Chem

>  <Document Year>  (821) 
2008.0

>  <Active>  (821) 
0.0

>  <bits>  (821) 
<rdkit.DataStructs.cDataStructs.ExplicitBitVect object at 0x00000159F79317E0>

>  <Group>  (821) 
G2

$$$$

     RDKit          2D

 27 30  0  0  0  0  0  0  0  0999 V2000
    9.6612    4.5113    0.0000 C   0  0  0  0  0  0  0  0  0  0  0  0
    8.6575    5.6260    0.0000 C   0  0  0  0  0  0  0  0  0  0  0  0
    7.1902    5.3142    0.0000 N   0  0  0  0  0  0  0  0  0  0  0  0
    6.7267    3.8876    0.0000 C   0  0  0  0  0  0  0  0  0  0  0  0
    5.2595    3.5757    0.0000 C   0  0  0  0  0  0  0  0  0  0  0  0
    4.2558    4.6904    0.0000 C   0  0  0  0  0  0  0  0  0  0  0  0
    2.7886    4.3786    0.0000 C   0  0  0  0  0  0  0  0  0  0  0  0
    2.3250    2.9520    0.0000 C   0  0  0  0  0  0  0  0  0  0  0  0
    3.3287    1.8373    0.0000 O   0  0  0  0  0  0  0  0  0  0  0  0
    0.8578    2.6401    0.0000 N   0  0  0  0  0  0  0  0  0  0  0  0
    0.3943    1.2135    0.0000 C   0  0  0  0  0  0  0  0  0  0  0  0
    1.2760    0.0000    0.0000 N   0  0  0  0  0  0  0  0  0  0  0  0
    0.3943   -1.2135    0.0000 N   0  0  0  0  0  0  0  0  0  0  0  0
   -1.0323   -0.7500    0.0000 C   0  0  0  0  0  0  0  0  0  0  0  0
   -2.3313   -1.5000    0.0000 N   0  0  0  0  0  0  0  0  0  0  0  0
   -3.6304   -0.7500    0.0000 C   0  0  0  0  0  0  0  0  0  0  0  0
   -4.9294   -1.5000    0.0000 C   0  0  0  0  0  0  0  0  0  0  0  0
   -5.0862   -2.9918    0.0000 C   0  0  0  0  0  0  0  0  0  0  0  0
   -6.5534   -3.3037    0.0000 C   0  0  0  0  0  0  0  0  0  0  0  0
   -7.3034   -2.0046    0.0000 C   0  0  0  0  0  0  0  0  0  0  0  0
   -6.2997   -0.8899    0.0000 S   0  0  0  0  0  0  0  0  0  0  0  0
   -3.6304    0.7500    0.0000 C   0  0  0  0  0  0  0  0  0  0  0  0
   -4.9294    1.5000    0.0000 Br  0  0  0  0  0  0  0  0  0  0  0  0
   -2.3313    1.5000    0.0000 C   0  0  0  0  0  0  0  0  0  0  0  0
   -1.0323    0.7500    0.0000 C   0  0  0  0  0  0  0  0  0  0  0  0
    4.7193    6.1170    0.0000 C   0  0  0  0  0  0  0  0  0  0  0  0
    6.1865    6.4289    0.0000 C   0  0  0  0  0  0  0  0  0  0  0  0
  1  2  1  0
  2  3  1  0
  3  4  1  0
  4  5  1  0
  5  6  1  0
  6  7  1  0
  7  8  1  0
  8  9  2  0
  8 10  1  0
 10 11  1  0
 11 12  2  0
 12 13  1  0
 13 14  1  0
 14 15  2  0
 15 16  1  0
 16 17  1  0
 17 18  2  0
 18 19  1  0
 19 20  2  0
 20 21  1  0
 16 22  2  0
 22 23  1  0
 22 24  1  0
 24 25  2  0
  6 26  1  0
 26 27  1  0
 27  3  1  0
 25 11  1  0
 25 14  1  0
 21 17  1  0
M  END
>  <Compound_ID>  (822) 
CHEMBL2062290

>  <Molecule Name>  (822) 
nan

>  <Molecular Weight>  (822) 
598.48

>  <AlogP>  (822) 
4.51

>  <Smiles>  (822) 
CCN1CCC(CC(=O)Nc2n[nH]c3nc(-c4cccs4)c(Br)cc23)CC1

>  <Standard Type>  (822) 
Inhibition

>  <Standard Relation>  (822) 
'='

>  <Standard Units>  (822) 
%

>  <Standard Value>  (822) 
0.88

>  <Assay ChEMBL ID>  (822) 
CHEMBL1962185

>  <Assay Description>  (822) 
GSK_PKIS: TRKA mean inhibition at 1 uM [Nanosyn]

>  <BAO Format ID>  (822) 
BAO_0000357

>  <BAO Label>  (822) 
single protein format

>  <Assay Organism>  (822) 
None

>  <Target ChEMBL ID>  (822) 
CHEMBL2815

>  <Target Name>  (822) 
Nerve growth factor receptor Trk-A

>  <Target Organism>  (822) 
Homo sapiens

>  <Target Type>  (822) 
SINGLE PROTEIN

>  <Document ChEMBL ID>  (822) 
CHEMBL1961873

>  <Source Description>  (822) 
GSK Published Kinase Inhibitor Set

>  <Document Journal>  (822) 
nan

>  <Document Year>  (822) 
nan

>  <Active>  (822) 
0.0

>  <bits>  (822) 
<rdkit.DataStructs.cDataStructs.ExplicitBitVect object at 0x00000159F79338B0>

>  <Group>  (822) 
G2

$$$$

     RDKit          2D

 24 27  0  0  0  0  0  0  0  0999 V2000
    3.0000    0.0000    0.0000 F   0  0  0  0  0  0  0  0  0  0  0  0
    1.5000    0.0000    0.0000 C   0  0  0  0  0  0  0  0  0  0  0  0
    0.7500   -1.2990    0.0000 C   0  0  0  0  0  0  0  0  0  0  0  0
   -0.7500   -1.2990    0.0000 C   0  0  0  0  0  0  0  0  0  0  0  0
   -1.5000    0.0000    0.0000 C   0  0  0  0  0  0  0  0  0  0  0  0
   -3.0000    0.0000    0.0000 C   0  0  0  0  0  0  0  0  0  0  0  0
   -3.7500    1.2990    0.0000 C   0  0  0  0  0  0  0  0  0  0  0  0
   -5.2500    1.2990    0.0000 C   0  0  0  0  0  0  0  0  0  0  0  0
   -6.0000    2.5981    0.0000 C   0  0  0  0  0  0  0  0  0  0  0  0
   -7.4918    2.7549    0.0000 C   0  0  0  0  0  0  0  0  0  0  0  0
   -7.8037    4.2221    0.0000 N   0  0  0  0  0  0  0  0  0  0  0  0
   -6.5046    4.9721    0.0000 N   0  0  0  0  0  0  0  0  0  0  0  0
   -5.3899    3.9684    0.0000 C   0  0  0  0  0  0  0  0  0  0  0  0
   -3.9227    4.2803    0.0000 C   0  0  0  0  0  0  0  0  0  0  0  0
   -2.9190    3.1655    0.0000 C   0  0  0  0  0  0  0  0  0  0  0  0
   -1.4518    3.4774    0.0000 C   0  0  0  0  0  0  0  0  0  0  0  0
   -0.9882    4.9040    0.0000 C   0  0  0  0  0  0  0  0  0  0  0  0
   -1.9919    6.0187    0.0000 C   0  0  0  0  0  0  0  0  0  0  0  0
   -3.4591    5.7068    0.0000 N   0  0  0  0  0  0  0  0  0  0  0  0
   -6.0000    0.0000    0.0000 C   0  0  0  0  0  0  0  0  0  0  0  0
   -5.2500   -1.2990    0.0000 C   0  0  0  0  0  0  0  0  0  0  0  0
   -3.7500   -1.2990    0.0000 N   0  0  0  0  0  0  0  0  0  0  0  0
   -0.7500    1.2990    0.0000 C   0  0  0  0  0  0  0  0  0  0  0  0
    0.7500    1.2990    0.0000 C   0  0  0  0  0  0  0  0  0  0  0  0
  1  2  1  0
  2  3  2  0
  3  4  1  0
  4  5  2  0
  5  6  1  0
  6  7  2  0
  7  8  1  0
  8  9  1  0
  9 10  2  0
 10 11  1  0
 11 12  1  0
 12 13  2  0
 13 14  1  0
 14 15  2  0
 15 16  1  0
 16 17  2  0
 17 18  1  0
 18 19  2  0
  8 20  2  0
 20 21  1  0
 21 22  2  0
  5 23  1  0
 23 24  2  0
 24  2  1  0
 22  6  1  0
 13  9  1  0
 19 14  1  0
M  END
>  <Compound_ID>  (823) 
CHEMBL381948

>  <Molecule Name>  (823) 
GW680975X

>  <Molecular Weight>  (823) 
316.34

>  <AlogP>  (823) 
4.34

>  <Smiles>  (823) 
Fc1ccc(-c2cc(-c3c[nH]nc3-c3ccccn3)ccn2)cc1

>  <Standard Type>  (823) 
Inhibition

>  <Standard Relation>  (823) 
'='

>  <Standard Units>  (823) 
%

>  <Standard Value>  (823) 
2.16

>  <Assay ChEMBL ID>  (823) 
CHEMBL1962184

>  <Assay Description>  (823) 
GSK_PKIS: TRKA mean inhibition at 0.1 uM [Nanosyn]

>  <BAO Format ID>  (823) 
BAO_0000357

>  <BAO Label>  (823) 
single protein format

>  <Assay Organism>  (823) 
None

>  <Target ChEMBL ID>  (823) 
CHEMBL2815

>  <Target Name>  (823) 
Nerve growth factor receptor Trk-A

>  <Target Organism>  (823) 
Homo sapiens

>  <Target Type>  (823) 
SINGLE PROTEIN

>  <Document ChEMBL ID>  (823) 
CHEMBL1961873

>  <Source Description>  (823) 
GSK Published Kinase Inhibitor Set

>  <Document Journal>  (823) 
nan

>  <Document Year>  (823) 
nan

>  <Active>  (823) 
0.0

>  <bits>  (823) 
<rdkit.DataStructs.cDataStructs.ExplicitBitVect object at 0x00000159F7932B20>

>  <Group>  (823) 
G2

$$$$

     RDKit          2D

 34 38  0  0  0  0  0  0  0  0999 V2000
   11.8391  -10.8663    0.0000 C   0  0  0  0  0  0  0  0  0  0  0  0
   10.4688  -10.2562    0.0000 N   0  0  0  0  0  0  0  0  0  0  0  0
    9.2553  -11.1379    0.0000 C   0  0  0  0  0  0  0  0  0  0  0  0
   10.3120   -8.7644    0.0000 C   0  0  0  0  0  0  0  0  0  0  0  0
    8.9417   -8.1543    0.0000 C   0  0  0  0  0  0  0  0  0  0  0  0
    8.7849   -6.6625    0.0000 O   0  0  0  0  0  0  0  0  0  0  0  0
    7.4146   -6.0524    0.0000 C   0  0  0  0  0  0  0  0  0  0  0  0
    6.2011   -6.9341    0.0000 C   0  0  0  0  0  0  0  0  0  0  0  0
    4.8308   -6.3240    0.0000 C   0  0  0  0  0  0  0  0  0  0  0  0
    4.6740   -4.8322    0.0000 C   0  0  0  0  0  0  0  0  0  0  0  0
    3.3037   -4.2221    0.0000 C   0  0  0  0  0  0  0  0  0  0  0  0
    2.0046   -4.9721    0.0000 N   0  0  0  0  0  0  0  0  0  0  0  0
    0.8899   -3.9684    0.0000 C   0  0  0  0  0  0  0  0  0  0  0  0
   -0.5773   -4.2803    0.0000 C   0  0  0  0  0  0  0  0  0  0  0  0
   -1.5810   -3.1655    0.0000 C   0  0  0  0  0  0  0  0  0  0  0  0
   -3.0482   -3.4774    0.0000 C   0  0  0  0  0  0  0  0  0  0  0  0
   -3.5118   -4.9040    0.0000 N   0  0  0  0  0  0  0  0  0  0  0  0
   -2.5081   -6.0187    0.0000 C   0  0  0  0  0  0  0  0  0  0  0  0
   -1.0409   -5.7068    0.0000 C   0  0  0  0  0  0  0  0  0  0  0  0
    1.5000   -2.5981    0.0000 C   0  0  0  0  0  0  0  0  0  0  0  0
    0.7500   -1.2990    0.0000 C   0  0  0  0  0  0  0  0  0  0  0  0
    1.5000    0.0000    0.0000 C   0  0  0  0  0  0  0  0  0  0  0  0
    0.7500    1.2990    0.0000 C   0  0  0  0  0  0  0  0  0  0  0  0
   -0.7500    1.2990    0.0000 C   0  0  0  0  0  0  0  0  0  0  0  0
   -1.5000    0.0000    0.0000 C   0  0  0  0  0  0  0  0  0  0  0  0
   -0.7500   -1.2990    0.0000 C   0  0  0  0  0  0  0  0  0  0  0  0
   -2.9672    0.3119    0.0000 C   0  0  0  0  0  0  0  0  0  0  0  0
   -3.1240    1.8037    0.0000 C   0  0  0  0  0  0  0  0  0  0  0  0
   -1.7537    2.4138    0.0000 C   0  0  0  0  0  0  0  0  0  0  0  0
   -1.4418    3.8810    0.0000 N   0  0  0  0  0  0  0  0  0  0  0  0
   -2.5565    4.8847    0.0000 O   0  0  0  0  0  0  0  0  0  0  0  0
    2.9918   -2.7549    0.0000 N   0  0  0  0  0  0  0  0  0  0  0  0
    5.8875   -3.9505    0.0000 C   0  0  0  0  0  0  0  0  0  0  0  0
    7.2578   -4.5606    0.0000 C   0  0  0  0  0  0  0  0  0  0  0  0
  1  2  1  0
  2  3  1  0
  2  4  1  0
  4  5  1  0
  5  6  1  0
  6  7  1  0
  7  8  2  0
  8  9  1  0
  9 10  2  0
 10 11  1  0
 11 12  2  0
 12 13  1  0
 13 14  1  0
 14 15  2  0
 15 16  1  0
 16 17  2  0
 17 18  1  0
 18 19  2  0
 13 20  2  0
 20 21  1  0
 21 22  2  0
 22 23  1  0
 23 24  2  0
 24 25  1  0
 25 26  2  0
 25 27  1  0
 27 28  1  0
 28 29  1  0
 29 30  2  0
 30 31  1  0
 20 32  1  0
 10 33  1  0
 33 34  2  0
 34  7  1  0
 32 11  1  0
 19 14  1  0
 26 21  1  0
 29 24  1  0
M  END
>  <Compound_ID>  (824) 
CHEMBL1909414

>  <Molecule Name>  (824) 
nan

>  <Molecular Weight>  (824) 
508.02

>  <AlogP>  (824) 
4.87

>  <Smiles>  (824) 
CN(C)CCOc1ccc(-c2nc(-c3ccncc3)c(-c3ccc4c(c3)CC/C4=N\O)[nH]2)cc1

>  <Standard Type>  (824) 
Inhibition

>  <Standard Relation>  (824) 
'='

>  <Standard Units>  (824) 
%

>  <Standard Value>  (824) 
2.02

>  <Assay ChEMBL ID>  (824) 
CHEMBL1962184

>  <Assay Description>  (824) 
GSK_PKIS: TRKA mean inhibition at 0.1 uM [Nanosyn]

>  <BAO Format ID>  (824) 
BAO_0000357

>  <BAO Label>  (824) 
single protein format

>  <Assay Organism>  (824) 
None

>  <Target ChEMBL ID>  (824) 
CHEMBL2815

>  <Target Name>  (824) 
Nerve growth factor receptor Trk-A

>  <Target Organism>  (824) 
Homo sapiens

>  <Target Type>  (824) 
SINGLE PROTEIN

>  <Document ChEMBL ID>  (824) 
CHEMBL1961873

>  <Source Description>  (824) 
GSK Published Kinase Inhibitor Set

>  <Document Journal>  (824) 
nan

>  <Document Year>  (824) 
nan

>  <Active>  (824) 
0.0

>  <bits>  (824) 
<rdkit.DataStructs.cDataStructs.ExplicitBitVect object at 0x00000159F7932420>

>  <Group>  (824) 
G2

$$$$

     RDKit          2D

 21 23  0  0  0  0  0  0  0  0999 V2000
    4.0667   -3.6527    0.0000 N   0  0  0  0  0  0  0  0  0  0  0  0
    2.6401   -3.1891    0.0000 C   0  0  0  0  0  0  0  0  0  0  0  0
    1.2135   -2.7256    0.0000 C   0  0  0  0  0  0  0  0  0  0  0  0
   -0.0000   -3.6073    0.0000 C   0  0  0  0  0  0  0  0  0  0  0  0
   -0.0000   -5.1073    0.0000 N   0  0  0  0  0  0  0  0  0  0  0  0
   -1.2990   -5.8573    0.0000 C   0  0  0  0  0  0  0  0  0  0  0  0
   -2.5981   -5.1073    0.0000 O   0  0  0  0  0  0  0  0  0  0  0  0
   -1.2990   -7.3573    0.0000 C   0  0  0  0  0  0  0  0  0  0  0  0
   -2.5981   -8.1073    0.0000 C   0  0  0  0  0  0  0  0  0  0  0  0
   -2.5981   -9.6073    0.0000 C   0  0  0  0  0  0  0  0  0  0  0  0
   -1.2990  -10.3573    0.0000 C   0  0  0  0  0  0  0  0  0  0  0  0
    0.0000   -9.6073    0.0000 C   0  0  0  0  0  0  0  0  0  0  0  0
    0.0000   -8.1073    0.0000 C   0  0  0  0  0  0  0  0  0  0  0  0
    1.2990   -7.3573    0.0000 F   0  0  0  0  0  0  0  0  0  0  0  0
   -1.2135   -2.7256    0.0000 S   0  0  0  0  0  0  0  0  0  0  0  0
   -0.7500   -1.2990    0.0000 C   0  0  0  0  0  0  0  0  0  0  0  0
    0.7500   -1.2990    0.0000 C   0  0  0  0  0  0  0  0  0  0  0  0
    1.5000    0.0000    0.0000 C   0  0  0  0  0  0  0  0  0  0  0  0
    0.7500    1.2990    0.0000 C   0  0  0  0  0  0  0  0  0  0  0  0
   -0.7500    1.2990    0.0000 C   0  0  0  0  0  0  0  0  0  0  0  0
   -1.5000    0.0000    0.0000 C   0  0  0  0  0  0  0  0  0  0  0  0
  1  2  3  0
  2  3  1  0
  3  4  2  0
  4  5  1  0
  5  6  1  0
  6  7  2  0
  6  8  1  0
  8  9  2  0
  9 10  1  0
 10 11  2  0
 11 12  1  0
 12 13  2  0
 13 14  1  0
  4 15  1  0
 15 16  1  0
 16 17  2  0
 17 18  1  0
 18 19  1  0
 19 20  1  0
 20 21  1  0
 17  3  1  0
 13  8  1  0
 21 16  1  0
M  END
>  <Compound_ID>  (825) 
CHEMBL234838

>  <Molecule Name>  (825) 
GW572738X

>  <Molecular Weight>  (825) 
300.36

>  <AlogP>  (825) 
3.89

>  <Smiles>  (825) 
N#Cc1c(NC(=O)c2ccccc2F)sc2c1CCCC2

>  <Standard Type>  (825) 
Inhibition

>  <Standard Relation>  (825) 
'='

>  <Standard Units>  (825) 
%

>  <Standard Value>  (825) 
-0.84

>  <Assay ChEMBL ID>  (825) 
CHEMBL1962184

>  <Assay Description>  (825) 
GSK_PKIS: TRKA mean inhibition at 0.1 uM [Nanosyn]

>  <BAO Format ID>  (825) 
BAO_0000357

>  <BAO Label>  (825) 
single protein format

>  <Assay Organism>  (825) 
None

>  <Target ChEMBL ID>  (825) 
CHEMBL2815

>  <Target Name>  (825) 
Nerve growth factor receptor Trk-A

>  <Target Organism>  (825) 
Homo sapiens

>  <Target Type>  (825) 
SINGLE PROTEIN

>  <Document ChEMBL ID>  (825) 
CHEMBL1961873

>  <Source Description>  (825) 
GSK Published Kinase Inhibitor Set

>  <Document Journal>  (825) 
nan

>  <Document Year>  (825) 
nan

>  <Active>  (825) 
0.0

>  <bits>  (825) 
<rdkit.DataStructs.cDataStructs.ExplicitBitVect object at 0x00000159F79322D0>

>  <Group>  (825) 
G2

$$$$

     RDKit          2D

 21 24  0  0  0  0  0  0  0  0999 V2000
   -1.8373   -5.6601    0.0000 O   0  0  0  0  0  0  0  0  0  0  0  0
   -2.9520   -4.6564    0.0000 C   0  0  0  0  0  0  0  0  0  0  0  0
   -2.6401   -3.1891    0.0000 N   0  0  0  0  0  0  0  0  0  0  0  0
   -1.2135   -2.7256    0.0000 C   0  0  0  0  0  0  0  0  0  0  0  0
   -0.0000   -3.6073    0.0000 N   0  0  0  0  0  0  0  0  0  0  0  0
    1.2135   -2.7256    0.0000 N   0  0  0  0  0  0  0  0  0  0  0  0
    0.7500   -1.2990    0.0000 C   0  0  0  0  0  0  0  0  0  0  0  0
    1.5000    0.0000    0.0000 C   0  0  0  0  0  0  0  0  0  0  0  0
    0.7500    1.2990    0.0000 C   0  0  0  0  0  0  0  0  0  0  0  0
    1.5000    2.5981    0.0000 C   0  0  0  0  0  0  0  0  0  0  0  0
    3.0000    2.5981    0.0000 C   0  0  0  0  0  0  0  0  0  0  0  0
    3.7500    3.8971    0.0000 C   0  0  0  0  0  0  0  0  0  0  0  0
    3.0000    5.1962    0.0000 C   0  0  0  0  0  0  0  0  0  0  0  0
    1.5000    5.1962    0.0000 C   0  0  0  0  0  0  0  0  0  0  0  0
    0.7500    3.8971    0.0000 C   0  0  0  0  0  0  0  0  0  0  0  0
   -0.7500    1.2990    0.0000 C   0  0  0  0  0  0  0  0  0  0  0  0
   -1.5000    0.0000    0.0000 C   0  0  0  0  0  0  0  0  0  0  0  0
   -0.7500   -1.2990    0.0000 C   0  0  0  0  0  0  0  0  0  0  0  0
   -4.3786   -5.1199    0.0000 C   0  0  0  0  0  0  0  0  0  0  0  0
   -5.3823   -6.2346    0.0000 C   0  0  0  0  0  0  0  0  0  0  0  0
   -5.8458   -4.8080    0.0000 C   0  0  0  0  0  0  0  0  0  0  0  0
  1  2  2  0
  2  3  1  0
  3  4  1  0
  4  5  2  0
  5  6  1  0
  6  7  1  0
  7  8  2  0
  8  9  1  0
  9 10  1  0
 10 11  2  0
 11 12  1  0
 12 13  2  0
 13 14  1  0
 14 15  2  0
  9 16  2  0
 16 17  1  0
 17 18  2  0
  2 19  1  0
 19 20  1  0
 20 21  1  0
 18  4  1  0
 21 19  1  0
 18  7  1  0
 15 10  1  0
M  END
>  <Compound_ID>  (826) 
CHEMBL405021

>  <Molecule Name>  (826) 
nan

>  <Molecular Weight>  (826) 
277.33

>  <AlogP>  (826) 
3.58

>  <Smiles>  (826) 
O=C(Nc1n[nH]c2cc(-c3ccccc3)ccc12)C1CC1

>  <Standard Type>  (826) 
Inhibition

>  <Standard Relation>  (826) 
'='

>  <Standard Units>  (826) 
%

>  <Standard Value>  (826) 
2.59

>  <Assay ChEMBL ID>  (826) 
CHEMBL1962184

>  <Assay Description>  (826) 
GSK_PKIS: TRKA mean inhibition at 0.1 uM [Nanosyn]

>  <BAO Format ID>  (826) 
BAO_0000357

>  <BAO Label>  (826) 
single protein format

>  <Assay Organism>  (826) 
None

>  <Target ChEMBL ID>  (826) 
CHEMBL2815

>  <Target Name>  (826) 
Nerve growth factor receptor Trk-A

>  <Target Organism>  (826) 
Homo sapiens

>  <Target Type>  (826) 
SINGLE PROTEIN

>  <Document ChEMBL ID>  (826) 
CHEMBL1961873

>  <Source Description>  (826) 
GSK Published Kinase Inhibitor Set

>  <Document Journal>  (826) 
nan

>  <Document Year>  (826) 
nan

>  <Active>  (826) 
0.0

>  <bits>  (826) 
<rdkit.DataStructs.cDataStructs.ExplicitBitVect object at 0x00000159F7931A10>

>  <Group>  (826) 
G2

$$$$

     RDKit          2D

 31 34  0  0  0  0  0  0  0  0999 V2000
    3.0000    0.0000    0.0000 N   0  0  0  0  0  0  0  0  0  0  0  0
    1.5000    0.0000    0.0000 C   0  0  0  0  0  0  0  0  0  0  0  0
    0.7500   -1.2990    0.0000 N   0  0  0  0  0  0  0  0  0  0  0  0
   -0.7500   -1.2990    0.0000 C   0  0  0  0  0  0  0  0  0  0  0  0
   -1.5000   -2.5981    0.0000 N   0  0  0  0  0  0  0  0  0  0  0  0
   -3.0000   -2.5981    0.0000 C   0  0  0  0  0  0  0  0  0  0  0  0
   -3.7500   -1.2990    0.0000 C   0  0  0  0  0  0  0  0  0  0  0  0
   -5.2500   -1.2990    0.0000 C   0  0  0  0  0  0  0  0  0  0  0  0
   -6.0000   -2.5981    0.0000 C   0  0  0  0  0  0  0  0  0  0  0  0
   -7.5000   -2.5981    0.0000 C   0  0  0  0  0  0  0  0  0  0  0  0
   -8.2500   -3.8971    0.0000 O   0  0  0  0  0  0  0  0  0  0  0  0
   -8.2500   -1.2990    0.0000 N   0  0  0  0  0  0  0  0  0  0  0  0
   -9.7500   -1.2990    0.0000 C   0  0  0  0  0  0  0  0  0  0  0  0
  -10.5000    0.0000    0.0000 C   0  0  0  0  0  0  0  0  0  0  0  0
  -12.0000    0.0000    0.0000 C   0  0  0  0  0  0  0  0  0  0  0  0
  -12.7500    1.2990    0.0000 C   0  0  0  0  0  0  0  0  0  0  0  0
  -14.2500    1.2990    0.0000 C   0  0  0  0  0  0  0  0  0  0  0  0
  -15.0000    0.0000    0.0000 N   0  0  0  0  0  0  0  0  0  0  0  0
  -14.2500   -1.2990    0.0000 C   0  0  0  0  0  0  0  0  0  0  0  0
  -12.7500   -1.2990    0.0000 C   0  0  0  0  0  0  0  0  0  0  0  0
   -5.2500   -3.8971    0.0000 C   0  0  0  0  0  0  0  0  0  0  0  0
   -3.7500   -3.8971    0.0000 C   0  0  0  0  0  0  0  0  0  0  0  0
   -1.5000    0.0000    0.0000 C   0  0  0  0  0  0  0  0  0  0  0  0
   -0.7500    1.2990    0.0000 C   0  0  0  0  0  0  0  0  0  0  0  0
   -1.5000    2.5981    0.0000 N   0  0  0  0  0  0  0  0  0  0  0  0
   -0.7500    3.8971    0.0000 C   0  0  0  0  0  0  0  0  0  0  0  0
   -1.5000    5.1962    0.0000 C   0  0  0  0  0  0  0  0  0  0  0  0
   -3.0000    5.1962    0.0000 O   0  0  0  0  0  0  0  0  0  0  0  0
   -3.7500    3.8971    0.0000 C   0  0  0  0  0  0  0  0  0  0  0  0
   -3.0000    2.5981    0.0000 C   0  0  0  0  0  0  0  0  0  0  0  0
    0.7500    1.2990    0.0000 N   0  0  0  0  0  0  0  0  0  0  0  0
  1  2  1  0
  2  3  2  0
  3  4  1  0
  4  5  1  0
  5  6  1  0
  6  7  2  0
  7  8  1  0
  8  9  2  0
  9 10  1  0
 10 11  2  0
 10 12  1  0
 12 13  1  0
 13 14  1  0
 14 15  1  0
 15 16  2  0
 16 17  1  0
 17 18  2  0
 18 19  1  0
 19 20  2  0
  9 21  1  0
 21 22  2  0
  4 23  2  0
 23 24  1  0
 24 25  1  0
 25 26  1  0
 26 27  1  0
 27 28  1  0
 28 29  1  0
 29 30  1  0
 24 31  2  0
 31  2  1  0
 22  6  1  0
 30 25  1  0
 20 15  1  0
M  END
>  <Compound_ID>  (827) 
CHEMBL485524

>  <Molecule Name>  (827) 
nan

>  <Molecular Weight>  (827) 
419.49

>  <AlogP>  (827) 
2.01

>  <Smiles>  (827) 
Nc1nc(Nc2ccc(C(=O)NCCc3ccncc3)cc2)cc(N2CCOCC2)n1

>  <Standard Type>  (827) 
Inhibition

>  <Standard Relation>  (827) 
'='

>  <Standard Units>  (827) 
%

>  <Standard Value>  (827) 
7.0

>  <Assay ChEMBL ID>  (827) 
CHEMBL965679

>  <Assay Description>  (827) 
Inhibition of TrkA at 10 uM by HTRF assay relative to control

>  <BAO Format ID>  (827) 
BAO_0000357

>  <BAO Label>  (827) 
single protein format

>  <Assay Organism>  (827) 
None

>  <Target ChEMBL ID>  (827) 
CHEMBL2815

>  <Target Name>  (827) 
Nerve growth factor receptor Trk-A

>  <Target Organism>  (827) 
Homo sapiens

>  <Target Type>  (827) 
SINGLE PROTEIN

>  <Document ChEMBL ID>  (827) 
CHEMBL1150387

>  <Source Description>  (827) 
Scientific Literature

>  <Document Journal>  (827) 
J Med Chem

>  <Document Year>  (827) 
2008.0

>  <Active>  (827) 
0.0

>  <bits>  (827) 
<rdkit.DataStructs.cDataStructs.ExplicitBitVect object at 0x00000159F79306D0>

>  <Group>  (827) 
G2

$$$$

     RDKit          2D

 29 32  0  0  0  0  0  0  0  0999 V2000
    3.0000    0.0000    0.0000 C   0  0  0  0  0  0  0  0  0  0  0  0
    1.5000    0.0000    0.0000 C   0  0  0  0  0  0  0  0  0  0  0  0
    0.7500   -1.2990    0.0000 C   0  0  0  0  0  0  0  0  0  0  0  0
   -0.7500   -1.2990    0.0000 C   0  0  0  0  0  0  0  0  0  0  0  0
   -1.5000    0.0000    0.0000 C   0  0  0  0  0  0  0  0  0  0  0  0
   -3.0000    0.0000    0.0000 C   0  0  0  0  0  0  0  0  0  0  0  0
   -3.7500    1.2990    0.0000 N   0  0  0  0  0  0  0  0  0  0  0  0
   -3.0000    2.5981    0.0000 C   0  0  0  0  0  0  0  0  0  0  0  0
   -3.7500    3.8971    0.0000 C   0  0  0  0  0  0  0  0  0  0  0  0
   -5.2500    3.8971    0.0000 N   0  0  0  0  0  0  0  0  0  0  0  0
   -6.0000    5.1962    0.0000 C   0  0  0  0  0  0  0  0  0  0  0  0
   -5.2500    6.4952    0.0000 N   0  0  0  0  0  0  0  0  0  0  0  0
   -6.0000    7.7942    0.0000 C   0  0  0  0  0  0  0  0  0  0  0  0
   -7.5000    7.7942    0.0000 C   0  0  0  0  0  0  0  0  0  0  0  0
   -8.2500    6.4952    0.0000 C   0  0  0  0  0  0  0  0  0  0  0  0
   -9.7500    6.4952    0.0000 C   0  0  0  0  0  0  0  0  0  0  0  0
  -10.5000    5.1962    0.0000 C   0  0  0  0  0  0  0  0  0  0  0  0
  -11.2500    3.8971    0.0000 N   0  0  0  0  0  0  0  0  0  0  0  0
  -10.5000    7.7942    0.0000 C   0  0  0  0  0  0  0  0  0  0  0  0
   -9.7500    9.0933    0.0000 C   0  0  0  0  0  0  0  0  0  0  0  0
  -10.5000   10.3923    0.0000 C   0  0  0  0  0  0  0  0  0  0  0  0
  -12.0000   10.3923    0.0000 C   0  0  0  0  0  0  0  0  0  0  0  0
  -12.7500    9.0933    0.0000 C   0  0  0  0  0  0  0  0  0  0  0  0
  -12.0000    7.7942    0.0000 N   0  0  0  0  0  0  0  0  0  0  0  0
   -7.5000    5.1962    0.0000 N   0  0  0  0  0  0  0  0  0  0  0  0
   -6.0000    2.5981    0.0000 C   0  0  0  0  0  0  0  0  0  0  0  0
   -5.2500    1.2990    0.0000 C   0  0  0  0  0  0  0  0  0  0  0  0
   -0.7500    1.2990    0.0000 C   0  0  0  0  0  0  0  0  0  0  0  0
    0.7500    1.2990    0.0000 C   0  0  0  0  0  0  0  0  0  0  0  0
  1  2  1  0
  2  3  2  0
  3  4  1  0
  4  5  2  0
  5  6  1  0
  6  7  1  0
  7  8  1  0
  8  9  1  0
  9 10  1  0
 10 11  1  0
 11 12  2  0
 12 13  1  0
 13 14  2  0
 14 15  1  0
 15 16  1  0
 16 17  1  0
 17 18  3  0
 16 19  1  0
 19 20  2  0
 20 21  1  0
 21 22  2  0
 22 23  1  0
 23 24  2  0
 15 25  2  0
 10 26  1  0
 26 27  1  0
  5 28  1  0
 28 29  2  0
 29  2  1  0
 27  7  1  0
 25 11  1  0
 24 19  1  0
M  END
>  <Compound_ID>  (828) 
CHEMBL521145

>  <Molecule Name>  (828) 
nan

>  <Molecular Weight>  (828) 
384.49

>  <AlogP>  (828) 
3.16

>  <Smiles>  (828) 
Cc1ccc(CN2CCN(c3nccc(C(C#N)c4ccccn4)n3)CC2)cc1

>  <Standard Type>  (828) 
Inhibition

>  <Standard Relation>  (828) 
'='

>  <Standard Units>  (828) 
%

>  <Standard Value>  (828) 
5.0

>  <Assay ChEMBL ID>  (828) 
CHEMBL965679

>  <Assay Description>  (828) 
Inhibition of TrkA at 10 uM by HTRF assay relative to control

>  <BAO Format ID>  (828) 
BAO_0000357

>  <BAO Label>  (828) 
single protein format

>  <Assay Organism>  (828) 
None

>  <Target ChEMBL ID>  (828) 
CHEMBL2815

>  <Target Name>  (828) 
Nerve growth factor receptor Trk-A

>  <Target Organism>  (828) 
Homo sapiens

>  <Target Type>  (828) 
SINGLE PROTEIN

>  <Document ChEMBL ID>  (828) 
CHEMBL1150387

>  <Source Description>  (828) 
Scientific Literature

>  <Document Journal>  (828) 
J Med Chem

>  <Document Year>  (828) 
2008.0

>  <Active>  (828) 
0.0

>  <bits>  (828) 
<rdkit.DataStructs.cDataStructs.ExplicitBitVect object at 0x00000159F7933610>

>  <Group>  (828) 
G2

$$$$

     RDKit          2D

 30 33  0  0  0  0  0  0  0  0999 V2000
  -10.0849   -6.9740    0.0000 N   0  0  0  0  0  0  0  0  0  0  0  0
   -8.6583   -6.5105    0.0000 S   0  0  0  0  0  0  0  0  0  0  0  0
   -9.1218   -5.0839    0.0000 O   0  0  0  0  0  0  0  0  0  0  0  0
   -8.1948   -7.9371    0.0000 O   0  0  0  0  0  0  0  0  0  0  0  0
   -7.2317   -6.0469    0.0000 C   0  0  0  0  0  0  0  0  0  0  0  0
   -6.9199   -4.5797    0.0000 C   0  0  0  0  0  0  0  0  0  0  0  0
   -5.4933   -4.1162    0.0000 C   0  0  0  0  0  0  0  0  0  0  0  0
   -4.3786   -5.1199    0.0000 C   0  0  0  0  0  0  0  0  0  0  0  0
   -2.9520   -4.6564    0.0000 N   0  0  0  0  0  0  0  0  0  0  0  0
   -2.6401   -3.1891    0.0000 N   0  0  0  0  0  0  0  0  0  0  0  0
   -1.2135   -2.7256    0.0000 C   0  0  0  0  0  0  0  0  0  0  0  0
   -0.0000   -3.6073    0.0000 C   0  0  0  0  0  0  0  0  0  0  0  0
    0.0000   -5.1073    0.0000 O   0  0  0  0  0  0  0  0  0  0  0  0
    1.2135   -2.7256    0.0000 N   0  0  0  0  0  0  0  0  0  0  0  0
    0.7500   -1.2990    0.0000 C   0  0  0  0  0  0  0  0  0  0  0  0
    1.5000    0.0000    0.0000 C   0  0  0  0  0  0  0  0  0  0  0  0
    0.7500    1.2990    0.0000 C   0  0  0  0  0  0  0  0  0  0  0  0
   -0.7500    1.2990    0.0000 C   0  0  0  0  0  0  0  0  0  0  0  0
   -1.5000    0.0000    0.0000 C   0  0  0  0  0  0  0  0  0  0  0  0
   -3.0000    0.0000    0.0000 C   0  0  0  0  0  0  0  0  0  0  0  0
   -3.7500    1.2990    0.0000 C   0  0  0  0  0  0  0  0  0  0  0  0
   -5.2500    1.2990    0.0000 C   0  0  0  0  0  0  0  0  0  0  0  0
   -6.0000    2.5981    0.0000 C   0  0  0  0  0  0  0  0  0  0  0  0
   -7.5000    2.5981    0.0000 C   0  0  0  0  0  0  0  0  0  0  0  0
   -8.2500    1.2990    0.0000 N   0  0  0  0  0  0  0  0  0  0  0  0
   -7.5000    0.0000    0.0000 C   0  0  0  0  0  0  0  0  0  0  0  0
   -6.0000    0.0000    0.0000 C   0  0  0  0  0  0  0  0  0  0  0  0
   -0.7500   -1.2990    0.0000 C   0  0  0  0  0  0  0  0  0  0  0  0
   -4.6904   -6.5871    0.0000 C   0  0  0  0  0  0  0  0  0  0  0  0
   -6.1170   -7.0506    0.0000 C   0  0  0  0  0  0  0  0  0  0  0  0
  1  2  1  0
  2  3  2  0
  2  4  2  0
  2  5  1  0
  5  6  2  0
  6  7  1  0
  7  8  2  0
  8  9  1  0
  9 10  1  0
 10 11  2  0
 11 12  1  0
 12 13  2  0
 12 14  1  0
 14 15  1  0
 15 16  2  0
 16 17  1  0
 17 18  2  0
 18 19  1  0
 19 20  1  0
 20 21  1  0
 21 22  1  0
 22 23  2  0
 23 24  1  0
 24 25  2  0
 25 26  1  0
 26 27  2  0
 19 28  2  0
  8 29  1  0
 29 30  2  0
 30  5  1  0
 28 11  1  0
 28 15  1  0
 27 22  1  0
M  END
>  <Compound_ID>  (829) 
CHEMBL1909399

>  <Molecule Name>  (829) 
GW352430A

>  <Molecular Weight>  (829) 
457.94

>  <AlogP>  (829) 
2.28

>  <Smiles>  (829) 
NS(=O)(=O)c1ccc(N/N=C2\C(=O)Nc3cccc(CCc4ccncc4)c32)cc1

>  <Standard Type>  (829) 
Inhibition

>  <Standard Relation>  (829) 
'='

>  <Standard Units>  (829) 
%

>  <Standard Value>  (829) 
6.26

>  <Assay ChEMBL ID>  (829) 
CHEMBL1962184

>  <Assay Description>  (829) 
GSK_PKIS: TRKA mean inhibition at 0.1 uM [Nanosyn]

>  <BAO Format ID>  (829) 
BAO_0000357

>  <BAO Label>  (829) 
single protein format

>  <Assay Organism>  (829) 
None

>  <Target ChEMBL ID>  (829) 
CHEMBL2815

>  <Target Name>  (829) 
Nerve growth factor receptor Trk-A

>  <Target Organism>  (829) 
Homo sapiens

>  <Target Type>  (829) 
SINGLE PROTEIN

>  <Document ChEMBL ID>  (829) 
CHEMBL1961873

>  <Source Description>  (829) 
GSK Published Kinase Inhibitor Set

>  <Document Journal>  (829) 
nan

>  <Document Year>  (829) 
nan

>  <Active>  (829) 
0.0

>  <bits>  (829) 
<rdkit.DataStructs.cDataStructs.ExplicitBitVect object at 0x00000159F7933290>

>  <Group>  (829) 
G2

$$$$

     RDKit          2D

 26 28  0  0  0  0  0  0  0  0999 V2000
    5.2500   -1.2990    0.0000 C   0  0  0  0  0  0  0  0  0  0  0  0
    3.7500   -1.2990    0.0000 C   0  0  0  0  0  0  0  0  0  0  0  0
    3.0000   -2.5981    0.0000 C   0  0  0  0  0  0  0  0  0  0  0  0
    3.0000    0.0000    0.0000 C   0  0  0  0  0  0  0  0  0  0  0  0
    1.5000    0.0000    0.0000 C   0  0  0  0  0  0  0  0  0  0  0  0
    0.7500   -1.2990    0.0000 C   0  0  0  0  0  0  0  0  0  0  0  0
   -0.7500   -1.2990    0.0000 C   0  0  0  0  0  0  0  0  0  0  0  0
   -1.5000    0.0000    0.0000 C   0  0  0  0  0  0  0  0  0  0  0  0
   -0.7500    1.2990    0.0000 C   0  0  0  0  0  0  0  0  0  0  0  0
    0.7500    1.2990    0.0000 C   0  0  0  0  0  0  0  0  0  0  0  0
    1.2135    2.7256    0.0000 C   0  0  0  0  0  0  0  0  0  0  0  0
    2.6401    3.1891    0.0000 N   0  0  0  0  0  0  0  0  0  0  0  0
    2.9520    4.6564    0.0000 N   0  0  0  0  0  0  0  0  0  0  0  0
    4.3786    5.1199    0.0000 C   0  0  0  0  0  0  0  0  0  0  0  0
    5.4933    4.1162    0.0000 C   0  0  0  0  0  0  0  0  0  0  0  0
    6.9199    4.5797    0.0000 C   0  0  0  0  0  0  0  0  0  0  0  0
    7.2317    6.0469    0.0000 C   0  0  0  0  0  0  0  0  0  0  0  0
    8.6583    6.5105    0.0000 S   0  0  0  0  0  0  0  0  0  0  0  0
   10.0849    6.9740    0.0000 N   0  0  0  0  0  0  0  0  0  0  0  0
    9.1218    5.0839    0.0000 O   0  0  0  0  0  0  0  0  0  0  0  0
    8.1948    7.9371    0.0000 O   0  0  0  0  0  0  0  0  0  0  0  0
    6.1170    7.0506    0.0000 C   0  0  0  0  0  0  0  0  0  0  0  0
    4.6904    6.5871    0.0000 C   0  0  0  0  0  0  0  0  0  0  0  0
   -0.0000    3.6073    0.0000 C   0  0  0  0  0  0  0  0  0  0  0  0
   -0.0000    5.1073    0.0000 O   0  0  0  0  0  0  0  0  0  0  0  0
   -1.2135    2.7256    0.0000 N   0  0  0  0  0  0  0  0  0  0  0  0
  1  2  1  0
  2  3  1  0
  2  4  2  0
  4  5  1  0
  5  6  2  0
  6  7  1  0
  7  8  2  0
  8  9  1  0
  9 10  2  0
 10 11  1  0
 11 12  2  0
 12 13  1  0
 13 14  1  0
 14 15  2  0
 15 16  1  0
 16 17  2  0
 17 18  1  0
 18 19  1  0
 18 20  2  0
 18 21  2  0
 17 22  1  0
 22 23  2  0
 11 24  1  0
 24 25  2  0
 24 26  1  0
 10  5  1  0
 23 14  1  0
 26  9  1  0
M  END
>  <Compound_ID>  (830) 
CHEMBL270544

>  <Molecule Name>  (830) 
GW396574X

>  <Molecular Weight>  (830) 
370.43

>  <AlogP>  (830) 
2.53

>  <Smiles>  (830) 
CC(C)=Cc1cccc2c1/C(=N/Nc1ccc(S(N)(=O)=O)cc1)C(=O)N2

>  <Standard Type>  (830) 
Inhibition

>  <Standard Relation>  (830) 
'='

>  <Standard Units>  (830) 
%

>  <Standard Value>  (830) 
6.87

>  <Assay ChEMBL ID>  (830) 
CHEMBL1962184

>  <Assay Description>  (830) 
GSK_PKIS: TRKA mean inhibition at 0.1 uM [Nanosyn]

>  <BAO Format ID>  (830) 
BAO_0000357

>  <BAO Label>  (830) 
single protein format

>  <Assay Organism>  (830) 
None

>  <Target ChEMBL ID>  (830) 
CHEMBL2815

>  <Target Name>  (830) 
Nerve growth factor receptor Trk-A

>  <Target Organism>  (830) 
Homo sapiens

>  <Target Type>  (830) 
SINGLE PROTEIN

>  <Document ChEMBL ID>  (830) 
CHEMBL1961873

>  <Source Description>  (830) 
GSK Published Kinase Inhibitor Set

>  <Document Journal>  (830) 
nan

>  <Document Year>  (830) 
nan

>  <Active>  (830) 
0.0

>  <bits>  (830) 
<rdkit.DataStructs.cDataStructs.ExplicitBitVect object at 0x00000159F7932C00>

>  <Group>  (830) 
G2

$$$$

     RDKit          2D

 27 30  0  0  0  0  0  0  0  0999 V2000
    3.0000    0.0000    0.0000 C   0  0  0  0  0  0  0  0  0  0  0  0
    1.5000    0.0000    0.0000 C   0  0  0  0  0  0  0  0  0  0  0  0
    0.7500   -1.2990    0.0000 C   0  0  0  0  0  0  0  0  0  0  0  0
   -0.7500   -1.2990    0.0000 C   0  0  0  0  0  0  0  0  0  0  0  0
   -1.5000   -2.5981    0.0000 C   0  0  0  0  0  0  0  0  0  0  0  0
   -3.0000   -2.5981    0.0000 C   0  0  0  0  0  0  0  0  0  0  0  0
   -3.7500   -3.8971    0.0000 C   0  0  0  0  0  0  0  0  0  0  0  0
   -3.0000   -5.1962    0.0000 C   0  0  0  0  0  0  0  0  0  0  0  0
   -1.5000   -5.1962    0.0000 C   0  0  0  0  0  0  0  0  0  0  0  0
   -0.7500   -3.8971    0.0000 N   0  0  0  0  0  0  0  0  0  0  0  0
   -1.5000    0.0000    0.0000 C   0  0  0  0  0  0  0  0  0  0  0  0
   -0.7500    1.2990    0.0000 C   0  0  0  0  0  0  0  0  0  0  0  0
   -1.5000    2.5981    0.0000 C   0  0  0  0  0  0  0  0  0  0  0  0
    0.7500    1.2990    0.0000 C   0  0  0  0  0  0  0  0  0  0  0  0
    1.5000    2.5981    0.0000 C   0  0  0  0  0  0  0  0  0  0  0  0
    3.0000    2.5981    0.0000 C   0  0  0  0  0  0  0  0  0  0  0  0
    3.7500    3.8971    0.0000 C   0  0  0  0  0  0  0  0  0  0  0  0
    5.2500    3.8971    0.0000 C   0  0  0  0  0  0  0  0  0  0  0  0
    6.0000    5.1962    0.0000 N   0  0  0  0  0  0  0  0  0  0  0  0
    5.2500    6.4952    0.0000 C   0  0  0  0  0  0  0  0  0  0  0  0
    3.7500    6.4952    0.0000 C   0  0  0  0  0  0  0  0  0  0  0  0
    3.0000    7.7942    0.0000 C   0  0  0  0  0  0  0  0  0  0  0  0
    1.5082    7.9510    0.0000 N   0  0  0  0  0  0  0  0  0  0  0  0
    1.1963    9.4182    0.0000 N   0  0  0  0  0  0  0  0  0  0  0  0
    2.4954   10.1682    0.0000 N   0  0  0  0  0  0  0  0  0  0  0  0
    3.6101    9.1645    0.0000 N   0  0  0  0  0  0  0  0  0  0  0  0
    3.0000    5.1962    0.0000 C   0  0  0  0  0  0  0  0  0  0  0  0
  1  2  1  0
  2  3  2  0
  3  4  1  0
  4  5  1  0
  5  6  2  0
  6  7  1  0
  7  8  2  0
  8  9  1  0
  9 10  2  0
  4 11  2  0
 11 12  1  0
 12 13  1  0
 12 14  2  0
 14 15  1  0
 15 16  2  0
 16 17  1  0
 17 18  2  0
 18 19  1  0
 19 20  2  0
 20 21  1  0
 21 22  1  0
 22 23  1  0
 23 24  2  0
 24 25  1  0
 25 26  1  0
 21 27  2  0
 14  2  1  0
 27 17  1  0
 10  5  1  0
 26 22  2  0
M  END
>  <Compound_ID>  (831) 
CHEMBL1909354

>  <Molecule Name>  (831) 
GW459057A

>  <Molecular Weight>  (831) 
390.88

>  <AlogP>  (831) 
4.11

>  <Smiles>  (831) 
Cc1cc(-c2ccccn2)cc(C)c1/C=C/c1cncc(-c2nn[nH]n2)c1

>  <Standard Type>  (831) 
Inhibition

>  <Standard Relation>  (831) 
'='

>  <Standard Units>  (831) 
%

>  <Standard Value>  (831) 
10.03

>  <Assay ChEMBL ID>  (831) 
CHEMBL1962185

>  <Assay Description>  (831) 
GSK_PKIS: TRKA mean inhibition at 1 uM [Nanosyn]

>  <BAO Format ID>  (831) 
BAO_0000357

>  <BAO Label>  (831) 
single protein format

>  <Assay Organism>  (831) 
None

>  <Target ChEMBL ID>  (831) 
CHEMBL2815

>  <Target Name>  (831) 
Nerve growth factor receptor Trk-A

>  <Target Organism>  (831) 
Homo sapiens

>  <Target Type>  (831) 
SINGLE PROTEIN

>  <Document ChEMBL ID>  (831) 
CHEMBL1961873

>  <Source Description>  (831) 
GSK Published Kinase Inhibitor Set

>  <Document Journal>  (831) 
nan

>  <Document Year>  (831) 
nan

>  <Active>  (831) 
0.0

>  <bits>  (831) 
<rdkit.DataStructs.cDataStructs.ExplicitBitVect object at 0x00000159F79327A0>

>  <Group>  (831) 
G2

$$$$

     RDKit          2D

 43 49  0  0  0  0  0  0  0  0999 V2000
    5.2500   -6.4952    0.0000 O   0  0  0  0  0  0  0  0  0  0  0  0
    3.7500   -6.4952    0.0000 C   0  0  0  0  0  0  0  0  0  0  0  0
    3.0000   -7.7942    0.0000 C   0  0  0  0  0  0  0  0  0  0  0  0
    1.5082   -7.9510    0.0000 N   0  0  0  0  0  0  0  0  0  0  0  0
    1.1963   -9.4182    0.0000 C   0  0  0  0  0  0  0  0  0  0  0  0
   -0.1740  -10.0283    0.0000 S   0  0  0  0  0  0  0  0  0  0  0  0
   -1.3875   -9.1467    0.0000 C   0  0  0  0  0  0  0  0  0  0  0  0
   -2.7578   -9.7568    0.0000 C   0  0  0  0  0  0  0  0  0  0  0  0
   -3.9713   -8.8751    0.0000 C   0  0  0  0  0  0  0  0  0  0  0  0
   -5.3417   -9.4852    0.0000 C   0  0  0  0  0  0  0  0  0  0  0  0
   -5.4984  -10.9770    0.0000 C   0  0  0  0  0  0  0  0  0  0  0  0
   -6.8688  -11.5871    0.0000 Cl  0  0  0  0  0  0  0  0  0  0  0  0
   -4.2849  -11.8587    0.0000 C   0  0  0  0  0  0  0  0  0  0  0  0
   -2.9146  -11.2486    0.0000 C   0  0  0  0  0  0  0  0  0  0  0  0
    2.4954  -10.1682    0.0000 N   0  0  0  0  0  0  0  0  0  0  0  0
    2.8073  -11.6355    0.0000 C   0  0  0  0  0  0  0  0  0  0  0  0
    4.2338  -12.0990    0.0000 C   0  0  0  0  0  0  0  0  0  0  0  0
    5.3486  -11.0953    0.0000 C   0  0  0  0  0  0  0  0  0  0  0  0
    5.0367   -9.6281    0.0000 C   0  0  0  0  0  0  0  0  0  0  0  0
    3.6101   -9.1645    0.0000 C   0  0  0  0  0  0  0  0  0  0  0  0
    3.0000   -5.1962    0.0000 N   0  0  0  0  0  0  0  0  0  0  0  0
    3.7500   -3.8971    0.0000 C   0  0  0  0  0  0  0  0  0  0  0  0
    3.0000   -2.5981    0.0000 C   0  0  0  0  0  0  0  0  0  0  0  0
    1.5000   -2.5981    0.0000 N   0  0  0  0  0  0  0  0  0  0  0  0
    0.7500   -1.2990    0.0000 C   0  0  0  0  0  0  0  0  0  0  0  0
    1.5000    0.0000    0.0000 N   0  0  0  0  0  0  0  0  0  0  0  0
    0.7500    1.2990    0.0000 C   0  0  0  0  0  0  0  0  0  0  0  0
   -0.7500    1.2990    0.0000 N   0  0  0  0  0  0  0  0  0  0  0  0
   -1.5000    0.0000    0.0000 C   0  0  0  0  0  0  0  0  0  0  0  0
   -0.7500   -1.2990    0.0000 C   0  0  0  0  0  0  0  0  0  0  0  0
   -1.5000   -2.5981    0.0000 C   0  0  0  0  0  0  0  0  0  0  0  0
   -3.0000   -2.5981    0.0000 N   0  0  0  0  0  0  0  0  0  0  0  0
   -3.7500   -3.8971    0.0000 C   0  0  0  0  0  0  0  0  0  0  0  0
   -5.2500   -3.8971    0.0000 C   0  0  0  0  0  0  0  0  0  0  0  0
   -6.0000   -2.5981    0.0000 C   0  0  0  0  0  0  0  0  0  0  0  0
   -7.5000   -2.5981    0.0000 C   0  0  0  0  0  0  0  0  0  0  0  0
   -8.2500   -3.8971    0.0000 C   0  0  0  0  0  0  0  0  0  0  0  0
   -7.5000   -5.1962    0.0000 C   0  0  0  0  0  0  0  0  0  0  0  0
   -6.0000   -5.1962    0.0000 C   0  0  0  0  0  0  0  0  0  0  0  0
   -3.7500   -1.2990    0.0000 C   0  0  0  0  0  0  0  0  0  0  0  0
   -3.0000    0.0000    0.0000 C   0  0  0  0  0  0  0  0  0  0  0  0
    0.7500   -3.8971    0.0000 C   0  0  0  0  0  0  0  0  0  0  0  0
    1.5000   -5.1962    0.0000 C   0  0  0  0  0  0  0  0  0  0  0  0
  1  2  2  0
  2  3  1  0
  3  4  1  0
  4  5  2  0
  5  6  1  0
  6  7  1  0
  7  8  1  0
  8  9  2  0
  9 10  1  0
 10 11  2  0
 11 12  1  0
 11 13  1  0
 13 14  2  0
  5 15  1  0
 15 16  1  0
 16 17  2  0
 17 18  1  0
 18 19  2  0
 19 20  1  0
  2 21  1  0
 21 22  1  0
 22 23  1  0
 23 24  1  0
 24 25  1  0
 25 26  2  0
 26 27  1  0
 27 28  2  0
 28 29  1  0
 29 30  2  0
 30 31  1  0
 31 32  1  0
 32 33  1  0
 33 34  1  0
 34 35  2  0
 35 36  1  0
 36 37  2  0
 37 38  1  0
 38 39  2  0
 32 40  1  0
 40 41  1  0
 24 42  1  0
 42 43  1  0
 20  3  2  0
 43 21  1  0
 14  8  1  0
 20 15  1  0
 30 25  1  0
 39 34  1  0
 41 29  1  0
M  END
>  <Compound_ID>  (832) 
CHEMBL446637

>  <Molecule Name>  (832) 
nan

>  <Molecular Weight>  (832) 
610.19

>  <AlogP>  (832) 
5.59

>  <Smiles>  (832) 
O=C(c1nc(SCc2ccc(Cl)cc2)n2ccccc12)N1CCN(c2ncnc3c2CN(Cc2ccccc2)CC3)CC1

>  <Standard Type>  (832) 
Inhibition

>  <Standard Relation>  (832) 
'='

>  <Standard Units>  (832) 
%

>  <Standard Value>  (832) 
5.0

>  <Assay ChEMBL ID>  (832) 
CHEMBL965679

>  <Assay Description>  (832) 
Inhibition of TrkA at 10 uM by HTRF assay relative to control

>  <BAO Format ID>  (832) 
BAO_0000357

>  <BAO Label>  (832) 
single protein format

>  <Assay Organism>  (832) 
None

>  <Target ChEMBL ID>  (832) 
CHEMBL2815

>  <Target Name>  (832) 
Nerve growth factor receptor Trk-A

>  <Target Organism>  (832) 
Homo sapiens

>  <Target Type>  (832) 
SINGLE PROTEIN

>  <Document ChEMBL ID>  (832) 
CHEMBL1150387

>  <Source Description>  (832) 
Scientific Literature

>  <Document Journal>  (832) 
J Med Chem

>  <Document Year>  (832) 
2008.0

>  <Active>  (832) 
0.0

>  <bits>  (832) 
<rdkit.DataStructs.cDataStructs.ExplicitBitVect object at 0x00000159F7932650>

>  <Group>  (832) 
G2

$$$$

     RDKit          2D

 25 27  0  0  0  0  0  0  0  0999 V2000
   -0.1089   10.1536    0.0000 C   0  0  0  0  0  0  0  0  0  0  0  0
   -1.1126   11.2683    0.0000 C   0  0  0  0  0  0  0  0  0  0  0  0
   -2.1163   12.3831    0.0000 C   0  0  0  0  0  0  0  0  0  0  0  0
    0.0021   12.2720    0.0000 C   0  0  0  0  0  0  0  0  0  0  0  0
   -2.2273   10.2646    0.0000 C   0  0  0  0  0  0  0  0  0  0  0  0
   -3.6945   10.5765    0.0000 C   0  0  0  0  0  0  0  0  0  0  0  0
   -4.4445    9.2775    0.0000 C   0  0  0  0  0  0  0  0  0  0  0  0
   -5.9363    9.1207    0.0000 C   0  0  0  0  0  0  0  0  0  0  0  0
   -6.5464    7.7504    0.0000 O   0  0  0  0  0  0  0  0  0  0  0  0
   -6.8180   10.3342    0.0000 O   0  0  0  0  0  0  0  0  0  0  0  0
   -3.4408    8.1628    0.0000 C   0  0  0  0  0  0  0  0  0  0  0  0
   -3.7527    6.6955    0.0000 N   0  0  0  0  0  0  0  0  0  0  0  0
   -2.6380    5.6918    0.0000 C   0  0  0  0  0  0  0  0  0  0  0  0
   -1.2114    6.1554    0.0000 O   0  0  0  0  0  0  0  0  0  0  0  0
   -2.9499    4.2246    0.0000 N   0  0  0  0  0  0  0  0  0  0  0  0
   -1.8351    3.2209    0.0000 C   0  0  0  0  0  0  0  0  0  0  0  0
   -0.4086    3.6844    0.0000 C   0  0  0  0  0  0  0  0  0  0  0  0
    0.7062    2.6807    0.0000 C   0  0  0  0  0  0  0  0  0  0  0  0
    0.3943    1.2135    0.0000 C   0  0  0  0  0  0  0  0  0  0  0  0
    1.2760    0.0000    0.0000 N   0  0  0  0  0  0  0  0  0  0  0  0
    0.3943   -1.2135    0.0000 N   0  0  0  0  0  0  0  0  0  0  0  0
   -1.0323   -0.7500    0.0000 C   0  0  0  0  0  0  0  0  0  0  0  0
   -1.0323    0.7500    0.0000 C   0  0  0  0  0  0  0  0  0  0  0  0
   -2.1470    1.7537    0.0000 C   0  0  0  0  0  0  0  0  0  0  0  0
   -2.0705    8.7729    0.0000 S   0  0  0  0  0  0  0  0  0  0  0  0
  1  2  1  0
  2  3  1  0
  2  4  1  0
  2  5  1  0
  5  6  2  0
  6  7  1  0
  7  8  1  0
  8  9  2  0
  8 10  1  0
  7 11  2  0
 11 12  1  0
 12 13  1  0
 13 14  2  0
 13 15  1  0
 15 16  1  0
 16 17  2  0
 17 18  1  0
 18 19  2  0
 19 20  1  0
 20 21  1  0
 21 22  2  0
 22 23  1  0
 23 24  2  0
 11 25  1  0
 25  5  1  0
 24 16  1  0
 23 19  1  0
M  END
>  <Compound_ID>  (833) 
CHEMBL1641799

>  <Molecule Name>  (833) 
nan

>  <Molecular Weight>  (833) 
358.42

>  <AlogP>  (833) 
4.26

>  <Smiles>  (833) 
CC(C)(C)c1cc(C(=O)O)c(NC(=O)Nc2ccc3[nH]ncc3c2)s1

>  <Standard Type>  (833) 
Inhibition

>  <Standard Relation>  (833) 
'='

>  <Standard Units>  (833) 
%

>  <Standard Value>  (833) 
10.0

>  <Assay ChEMBL ID>  (833) 
CHEMBL1646926

>  <Assay Description>  (833) 
Inhibition of NTRK1 at 10 uM

>  <BAO Format ID>  (833) 
BAO_0000357

>  <BAO Label>  (833) 
single protein format

>  <Assay Organism>  (833) 
None

>  <Target ChEMBL ID>  (833) 
CHEMBL2815

>  <Target Name>  (833) 
Nerve growth factor receptor Trk-A

>  <Target Organism>  (833) 
Homo sapiens

>  <Target Type>  (833) 
SINGLE PROTEIN

>  <Document ChEMBL ID>  (833) 
CHEMBL1641460

>  <Source Description>  (833) 
Scientific Literature

>  <Document Journal>  (833) 
Bioorg Med Chem Lett

>  <Document Year>  (833) 
2011.0

>  <Active>  (833) 
0.0

>  <bits>  (833) 
<rdkit.DataStructs.cDataStructs.ExplicitBitVect object at 0x00000159F7932D50>

>  <Group>  (833) 
G2

$$$$

     RDKit          2D

 26 29  0  0  0  0  0  0  0  0999 V2000
    6.7500   -6.4952    0.0000 C   0  0  0  0  0  0  0  0  0  0  0  0
    6.0000   -5.1962    0.0000 S   0  0  0  0  0  0  0  0  0  0  0  0
    4.7010   -5.9462    0.0000 O   0  0  0  0  0  0  0  0  0  0  0  0
    7.2990   -4.4462    0.0000 O   0  0  0  0  0  0  0  0  0  0  0  0
    5.2500   -3.8971    0.0000 N   0  0  0  0  0  0  0  0  0  0  0  0
    3.7500   -3.8971    0.0000 C   0  0  0  0  0  0  0  0  0  0  0  0
    3.0000   -5.1962    0.0000 C   0  0  0  0  0  0  0  0  0  0  0  0
    1.5000   -5.1962    0.0000 C   0  0  0  0  0  0  0  0  0  0  0  0
    0.7500   -3.8971    0.0000 C   0  0  0  0  0  0  0  0  0  0  0  0
    1.5000   -2.5981    0.0000 C   0  0  0  0  0  0  0  0  0  0  0  0
    0.7500   -1.2990    0.0000 C   0  0  0  0  0  0  0  0  0  0  0  0
    1.5000    0.0000    0.0000 C   0  0  0  0  0  0  0  0  0  0  0  0
    0.7500    1.2990    0.0000 C   0  0  0  0  0  0  0  0  0  0  0  0
   -0.7500    1.2990    0.0000 C   0  0  0  0  0  0  0  0  0  0  0  0
   -1.7537    2.4138    0.0000 C   0  0  0  0  0  0  0  0  0  0  0  0
   -1.4418    3.8810    0.0000 N   0  0  0  0  0  0  0  0  0  0  0  0
   -2.5565    4.8847    0.0000 C   0  0  0  0  0  0  0  0  0  0  0  0
   -3.9831    4.4211    0.0000 O   0  0  0  0  0  0  0  0  0  0  0  0
   -2.2447    6.3519    0.0000 C   0  0  0  0  0  0  0  0  0  0  0  0
   -2.7082    7.7785    0.0000 C   0  0  0  0  0  0  0  0  0  0  0  0
   -1.2410    7.4666    0.0000 C   0  0  0  0  0  0  0  0  0  0  0  0
   -3.1240    1.8037    0.0000 N   0  0  0  0  0  0  0  0  0  0  0  0
   -2.9672    0.3119    0.0000 N   0  0  0  0  0  0  0  0  0  0  0  0
   -1.5000    0.0000    0.0000 C   0  0  0  0  0  0  0  0  0  0  0  0
   -0.7500   -1.2990    0.0000 C   0  0  0  0  0  0  0  0  0  0  0  0
    3.0000   -2.5981    0.0000 C   0  0  0  0  0  0  0  0  0  0  0  0
  1  2  1  0
  2  3  2  0
  2  4  2  0
  2  5  1  0
  5  6  1  0
  6  7  2  0
  7  8  1  0
  8  9  2  0
  9 10  1  0
 10 11  1  0
 11 12  2  0
 12 13  1  0
 13 14  2  0
 14 15  1  0
 15 16  1  0
 16 17  1  0
 17 18  2  0
 17 19  1  0
 19 20  1  0
 20 21  1  0
 15 22  2  0
 22 23  1  0
 23 24  1  0
 24 25  2  0
 10 26  2  0
 26  6  1  0
 25 11  1  0
 24 14  1  0
 21 19  1  0
M  END
>  <Compound_ID>  (834) 
CHEMBL103080

>  <Molecule Name>  (834) 
nan

>  <Molecular Weight>  (834) 
370.43

>  <AlogP>  (834) 
2.95

>  <Smiles>  (834) 
CS(=O)(=O)Nc1cccc(-c2ccc3c(NC(=O)C4CC4)n[nH]c3c2)c1

>  <Standard Type>  (834) 
Inhibition

>  <Standard Relation>  (834) 
'='

>  <Standard Units>  (834) 
%

>  <Standard Value>  (834) 
2.02

>  <Assay ChEMBL ID>  (834) 
CHEMBL1962185

>  <Assay Description>  (834) 
GSK_PKIS: TRKA mean inhibition at 1 uM [Nanosyn]

>  <BAO Format ID>  (834) 
BAO_0000357

>  <BAO Label>  (834) 
single protein format

>  <Assay Organism>  (834) 
None

>  <Target ChEMBL ID>  (834) 
CHEMBL2815

>  <Target Name>  (834) 
Nerve growth factor receptor Trk-A

>  <Target Organism>  (834) 
Homo sapiens

>  <Target Type>  (834) 
SINGLE PROTEIN

>  <Document ChEMBL ID>  (834) 
CHEMBL1961873

>  <Source Description>  (834) 
GSK Published Kinase Inhibitor Set

>  <Document Journal>  (834) 
nan

>  <Document Year>  (834) 
nan

>  <Active>  (834) 
0.0

>  <bits>  (834) 
<rdkit.DataStructs.cDataStructs.ExplicitBitVect object at 0x00000159F79312A0>

>  <Group>  (834) 
G2

$$$$

     RDKit          2D

 33 36  0  0  0  0  0  0  0  0999 V2000
   -3.7548   -2.1855    0.0000 C   0  0  0  0  0  0  0  0  0  0  0  0
   -2.6401   -3.1891    0.0000 C   0  0  0  0  0  0  0  0  0  0  0  0
   -1.2135   -2.7256    0.0000 N   0  0  0  0  0  0  0  0  0  0  0  0
   -0.0000   -3.6073    0.0000 C   0  0  0  0  0  0  0  0  0  0  0  0
   -0.0000   -5.1073    0.0000 C   0  0  0  0  0  0  0  0  0  0  0  0
    1.2135   -5.9890    0.0000 N   0  0  0  0  0  0  0  0  0  0  0  0
    0.7500   -7.4156    0.0000 O   0  0  0  0  0  0  0  0  0  0  0  0
   -0.7500   -7.4156    0.0000 N   0  0  0  0  0  0  0  0  0  0  0  0
   -1.2135   -5.9890    0.0000 C   0  0  0  0  0  0  0  0  0  0  0  0
   -2.6401   -5.5255    0.0000 N   0  0  0  0  0  0  0  0  0  0  0  0
    1.2135   -2.7256    0.0000 N   0  0  0  0  0  0  0  0  0  0  0  0
    0.7500   -1.2990    0.0000 C   0  0  0  0  0  0  0  0  0  0  0  0
    1.5000    0.0000    0.0000 C   0  0  0  0  0  0  0  0  0  0  0  0
    3.0000    0.0000    0.0000 C   0  0  0  0  0  0  0  0  0  0  0  0
    4.5000    0.0000    0.0000 C   0  0  0  0  0  0  0  0  0  0  0  0
    6.0000    0.0000    0.0000 C   0  0  0  0  0  0  0  0  0  0  0  0
    6.0000   -1.5000    0.0000 C   0  0  0  0  0  0  0  0  0  0  0  0
    6.0000    1.5000    0.0000 C   0  0  0  0  0  0  0  0  0  0  0  0
    7.5000    0.0000    0.0000 O   0  0  0  0  0  0  0  0  0  0  0  0
    0.7500    1.2990    0.0000 N   0  0  0  0  0  0  0  0  0  0  0  0
   -0.7500    1.2990    0.0000 C   0  0  0  0  0  0  0  0  0  0  0  0
   -1.5000    2.5981    0.0000 O   0  0  0  0  0  0  0  0  0  0  0  0
   -0.7500    3.8971    0.0000 C   0  0  0  0  0  0  0  0  0  0  0  0
   -1.5000    5.1962    0.0000 C   0  0  0  0  0  0  0  0  0  0  0  0
   -3.0000    5.1962    0.0000 N   0  0  0  0  0  0  0  0  0  0  0  0
   -0.7500    6.4952    0.0000 C   0  0  0  0  0  0  0  0  0  0  0  0
    0.7500    6.4952    0.0000 C   0  0  0  0  0  0  0  0  0  0  0  0
    1.5000    7.7942    0.0000 C   0  0  0  0  0  0  0  0  0  0  0  0
    0.7500    9.0933    0.0000 C   0  0  0  0  0  0  0  0  0  0  0  0
   -0.7500    9.0933    0.0000 C   0  0  0  0  0  0  0  0  0  0  0  0
   -1.5000    7.7942    0.0000 C   0  0  0  0  0  0  0  0  0  0  0  0
   -1.5000    0.0000    0.0000 C   0  0  0  0  0  0  0  0  0  0  0  0
   -0.7500   -1.2990    0.0000 C   0  0  0  0  0  0  0  0  0  0  0  0
  1  2  1  0
  2  3  1  0
  3  4  1  0
  4  5  1  0
  5  6  2  0
  6  7  1  0
  7  8  1  0
  8  9  2  0
  9 10  1  0
  4 11  2  0
 11 12  1  0
 12 13  2  0
 13 14  1  0
 14 15  3  0
 15 16  1  0
 16 17  1  0
 16 18  1  0
 16 19  1  0
 13 20  1  0
 20 21  2  0
 21 22  1  0
 22 23  1  0
 23 24  1  0
 24 25  1  6
 24 26  1  0
 26 27  2  0
 27 28  1  0
 28 29  2  0
 29 30  1  0
 30 31  2  0
 21 32  1  0
 32 33  2  0
 33  3  1  0
  9  5  1  0
 33 12  1  0
 31 26  1  0
M  END
>  <Compound_ID>  (835) 
CHEMBL1096634

>  <Molecule Name>  (835) 
GSK-943949A

>  <Molecular Weight>  (835) 
447.5

>  <AlogP>  (835) 
2.28

>  <Smiles>  (835) 
CCn1c(-c2nonc2N)nc2c(C#CC(C)(C)O)nc(OC[C@H](N)c3ccccc3)cc21

>  <Standard Type>  (835) 
Inhibition

>  <Standard Relation>  (835) 
'='

>  <Standard Units>  (835) 
%

>  <Standard Value>  (835) 
3.54

>  <Assay ChEMBL ID>  (835) 
CHEMBL1962185

>  <Assay Description>  (835) 
GSK_PKIS: TRKA mean inhibition at 1 uM [Nanosyn]

>  <BAO Format ID>  (835) 
BAO_0000357

>  <BAO Label>  (835) 
single protein format

>  <Assay Organism>  (835) 
None

>  <Target ChEMBL ID>  (835) 
CHEMBL2815

>  <Target Name>  (835) 
Nerve growth factor receptor Trk-A

>  <Target Organism>  (835) 
Homo sapiens

>  <Target Type>  (835) 
SINGLE PROTEIN

>  <Document ChEMBL ID>  (835) 
CHEMBL1961873

>  <Source Description>  (835) 
GSK Published Kinase Inhibitor Set

>  <Document Journal>  (835) 
nan

>  <Document Year>  (835) 
nan

>  <Active>  (835) 
0.0

>  <bits>  (835) 
<rdkit.DataStructs.cDataStructs.ExplicitBitVect object at 0x00000159F7931930>

>  <Group>  (835) 
G2

$$$$

     RDKit          2D

 31 34  0  0  0  0  0  0  0  0999 V2000
   -3.7548   -2.1855    0.0000 C   0  0  0  0  0  0  0  0  0  0  0  0
   -2.6401   -3.1891    0.0000 C   0  0  0  0  0  0  0  0  0  0  0  0
   -1.2135   -2.7256    0.0000 N   0  0  0  0  0  0  0  0  0  0  0  0
   -0.0000   -3.6073    0.0000 C   0  0  0  0  0  0  0  0  0  0  0  0
   -0.0000   -5.1073    0.0000 C   0  0  0  0  0  0  0  0  0  0  0  0
    1.2135   -5.9890    0.0000 N   0  0  0  0  0  0  0  0  0  0  0  0
    0.7500   -7.4156    0.0000 O   0  0  0  0  0  0  0  0  0  0  0  0
   -0.7500   -7.4156    0.0000 N   0  0  0  0  0  0  0  0  0  0  0  0
   -1.2135   -5.9890    0.0000 C   0  0  0  0  0  0  0  0  0  0  0  0
   -2.6401   -5.5255    0.0000 N   0  0  0  0  0  0  0  0  0  0  0  0
    1.2135   -2.7256    0.0000 N   0  0  0  0  0  0  0  0  0  0  0  0
    0.7500   -1.2990    0.0000 C   0  0  0  0  0  0  0  0  0  0  0  0
    1.5000    0.0000    0.0000 C   0  0  0  0  0  0  0  0  0  0  0  0
    3.0000    0.0000    0.0000 C   0  0  0  0  0  0  0  0  0  0  0  0
    4.5000    0.0000    0.0000 C   0  0  0  0  0  0  0  0  0  0  0  0
    6.0000    0.0000    0.0000 C   0  0  0  0  0  0  0  0  0  0  0  0
    6.0000   -1.5000    0.0000 C   0  0  0  0  0  0  0  0  0  0  0  0
    6.0000    1.5000    0.0000 C   0  0  0  0  0  0  0  0  0  0  0  0
    7.5000    0.0000    0.0000 O   0  0  0  0  0  0  0  0  0  0  0  0
    0.7500    1.2990    0.0000 N   0  0  0  0  0  0  0  0  0  0  0  0
   -0.7500    1.2990    0.0000 C   0  0  0  0  0  0  0  0  0  0  0  0
   -1.5000    0.0000    0.0000 C   0  0  0  0  0  0  0  0  0  0  0  0
   -3.0000    0.0000    0.0000 O   0  0  0  0  0  0  0  0  0  0  0  0
   -3.7500    1.2990    0.0000 C   0  0  0  0  0  0  0  0  0  0  0  0
   -5.2500    1.2990    0.0000 C   0  0  0  0  0  0  0  0  0  0  0  0
   -6.0000    2.5981    0.0000 C   0  0  0  0  0  0  0  0  0  0  0  0
   -7.5000    2.5981    0.0000 C   0  0  0  0  0  0  0  0  0  0  0  0
   -8.2500    1.2990    0.0000 N   0  0  0  0  0  0  0  0  0  0  0  0
   -7.5000    0.0000    0.0000 C   0  0  0  0  0  0  0  0  0  0  0  0
   -6.0000    0.0000    0.0000 C   0  0  0  0  0  0  0  0  0  0  0  0
   -0.7500   -1.2990    0.0000 C   0  0  0  0  0  0  0  0  0  0  0  0
  1  2  1  0
  2  3  1  0
  3  4  1  0
  4  5  1  0
  5  6  2  0
  6  7  1  0
  7  8  1  0
  8  9  2  0
  9 10  1  0
  4 11  2  0
 11 12  1  0
 12 13  2  0
 13 14  1  0
 14 15  3  0
 15 16  1  0
 16 17  1  0
 16 18  1  0
 16 19  1  0
 13 20  1  0
 20 21  2  0
 21 22  1  0
 22 23  1  0
 23 24  1  0
 24 25  1  0
 25 26  1  0
 26 27  1  0
 27 28  1  0
 28 29  1  0
 29 30  1  0
 22 31  2  0
 31  3  1  0
  9  5  1  0
 31 12  1  0
 30 25  1  0
M  END
>  <Compound_ID>  (836) 
CHEMBL1794065

>  <Molecule Name>  (836) 
GSK-554170A

>  <Molecular Weight>  (836) 
539.52

>  <AlogP>  (836) 
1.58

>  <Smiles>  (836) 
CCn1c(-c2nonc2N)nc2c(C#CC(C)(C)O)ncc(OCC3CCNCC3)c21

>  <Standard Type>  (836) 
Inhibition

>  <Standard Relation>  (836) 
'='

>  <Standard Units>  (836) 
%

>  <Standard Value>  (836) 
2.62

>  <Assay ChEMBL ID>  (836) 
CHEMBL1962185

>  <Assay Description>  (836) 
GSK_PKIS: TRKA mean inhibition at 1 uM [Nanosyn]

>  <BAO Format ID>  (836) 
BAO_0000357

>  <BAO Label>  (836) 
single protein format

>  <Assay Organism>  (836) 
None

>  <Target ChEMBL ID>  (836) 
CHEMBL2815

>  <Target Name>  (836) 
Nerve growth factor receptor Trk-A

>  <Target Organism>  (836) 
Homo sapiens

>  <Target Type>  (836) 
SINGLE PROTEIN

>  <Document ChEMBL ID>  (836) 
CHEMBL1961873

>  <Source Description>  (836) 
GSK Published Kinase Inhibitor Set

>  <Document Journal>  (836) 
nan

>  <Document Year>  (836) 
nan

>  <Active>  (836) 
0.0

>  <bits>  (836) 
<rdkit.DataStructs.cDataStructs.ExplicitBitVect object at 0x00000159F7933E60>

>  <Group>  (836) 
G2

$$$$

     RDKit          2D

 38 42  0  0  0  0  0  0  0  0999 V2000
   -1.3632  -12.1594    0.0000 C   0  0  0  0  0  0  0  0  0  0  0  0
   -1.2064  -10.6676    0.0000 S   0  0  0  0  0  0  0  0  0  0  0  0
    0.2854  -10.8244    0.0000 O   0  0  0  0  0  0  0  0  0  0  0  0
   -2.6982  -10.5109    0.0000 O   0  0  0  0  0  0  0  0  0  0  0  0
   -1.0496   -9.1759    0.0000 C   0  0  0  0  0  0  0  0  0  0  0  0
    0.3207   -8.5658    0.0000 C   0  0  0  0  0  0  0  0  0  0  0  0
    0.4775   -7.0740    0.0000 N   0  0  0  0  0  0  0  0  0  0  0  0
    1.8478   -6.4639    0.0000 C   0  0  0  0  0  0  0  0  0  0  0  0
    2.0046   -4.9721    0.0000 C   0  0  0  0  0  0  0  0  0  0  0  0
    3.3037   -4.2221    0.0000 C   0  0  0  0  0  0  0  0  0  0  0  0
    2.9918   -2.7549    0.0000 O   0  0  0  0  0  0  0  0  0  0  0  0
    1.5000   -2.5981    0.0000 C   0  0  0  0  0  0  0  0  0  0  0  0
    0.7500   -1.2990    0.0000 C   0  0  0  0  0  0  0  0  0  0  0  0
    1.5000    0.0000    0.0000 C   0  0  0  0  0  0  0  0  0  0  0  0
    0.7500    1.2990    0.0000 C   0  0  0  0  0  0  0  0  0  0  0  0
   -0.7500    1.2990    0.0000 C   0  0  0  0  0  0  0  0  0  0  0  0
   -1.5000    2.5981    0.0000 N   0  0  0  0  0  0  0  0  0  0  0  0
   -3.0000    2.5981    0.0000 C   0  0  0  0  0  0  0  0  0  0  0  0
   -3.7500    1.2990    0.0000 N   0  0  0  0  0  0  0  0  0  0  0  0
   -3.0000    0.0000    0.0000 C   0  0  0  0  0  0  0  0  0  0  0  0
   -3.7500   -1.2990    0.0000 N   0  0  0  0  0  0  0  0  0  0  0  0
   -5.2500   -1.2990    0.0000 C   0  0  0  0  0  0  0  0  0  0  0  0
   -6.0000    0.0000    0.0000 C   0  0  0  0  0  0  0  0  0  0  0  0
   -7.5000    0.0000    0.0000 C   0  0  0  0  0  0  0  0  0  0  0  0
   -8.2500   -1.2990    0.0000 C   0  0  0  0  0  0  0  0  0  0  0  0
   -9.7500   -1.2990    0.0000 O   0  0  0  0  0  0  0  0  0  0  0  0
  -10.5000    0.0000    0.0000 C   0  0  0  0  0  0  0  0  0  0  0  0
  -12.0000    0.0000    0.0000 C   0  0  0  0  0  0  0  0  0  0  0  0
  -12.7500    1.2990    0.0000 C   0  0  0  0  0  0  0  0  0  0  0  0
  -14.2500    1.2990    0.0000 C   0  0  0  0  0  0  0  0  0  0  0  0
  -15.0000    0.0000    0.0000 C   0  0  0  0  0  0  0  0  0  0  0  0
  -14.2500   -1.2990    0.0000 C   0  0  0  0  0  0  0  0  0  0  0  0
  -12.7500   -1.2990    0.0000 C   0  0  0  0  0  0  0  0  0  0  0  0
   -7.5000   -2.5981    0.0000 C   0  0  0  0  0  0  0  0  0  0  0  0
   -6.0000   -2.5981    0.0000 C   0  0  0  0  0  0  0  0  0  0  0  0
   -1.5000    0.0000    0.0000 C   0  0  0  0  0  0  0  0  0  0  0  0
   -0.7500   -1.2990    0.0000 C   0  0  0  0  0  0  0  0  0  0  0  0
    0.8899   -3.9684    0.0000 C   0  0  0  0  0  0  0  0  0  0  0  0
  1  2  1  0
  2  3  2  0
  2  4  2  0
  2  5  1  0
  5  6  1  0
  6  7  1  0
  7  8  1  0
  8  9  1  0
  9 10  2  0
 10 11  1  0
 11 12  1  0
 12 13  1  0
 13 14  2  0
 14 15  1  0
 15 16  2  0
 16 17  1  0
 17 18  2  0
 18 19  1  0
 19 20  2  0
 20 21  1  0
 21 22  1  0
 22 23  2  0
 23 24  1  0
 24 25  2  0
 25 26  1  0
 26 27  1  0
 27 28  1  0
 28 29  2  0
 29 30  1  0
 30 31  2  0
 31 32  1  0
 32 33  2  0
 25 34  1  0
 34 35  2  0
 20 36  1  0
 36 37  2  0
 12 38  2  0
 38  9  1  0
 37 13  1  0
 36 16  1  0
 35 22  1  0
 33 28  1  0
M  END
>  <Compound_ID>  (837) 
CHEMBL1909386

>  <Molecule Name>  (837) 
GW566221A

>  <Molecular Weight>  (837) 
565.1

>  <AlogP>  (837) 
5.35

>  <Smiles>  (837) 
CS(=O)(=O)CCNCc1coc(-c2ccc3ncnc(Nc4ccc(OCc5ccccc5)cc4)c3c2)c1

>  <Standard Type>  (837) 
Inhibition

>  <Standard Relation>  (837) 
'='

>  <Standard Units>  (837) 
%

>  <Standard Value>  (837) 
4.8

>  <Assay ChEMBL ID>  (837) 
CHEMBL1962185

>  <Assay Description>  (837) 
GSK_PKIS: TRKA mean inhibition at 1 uM [Nanosyn]

>  <BAO Format ID>  (837) 
BAO_0000357

>  <BAO Label>  (837) 
single protein format

>  <Assay Organism>  (837) 
None

>  <Target ChEMBL ID>  (837) 
CHEMBL2815

>  <Target Name>  (837) 
Nerve growth factor receptor Trk-A

>  <Target Organism>  (837) 
Homo sapiens

>  <Target Type>  (837) 
SINGLE PROTEIN

>  <Document ChEMBL ID>  (837) 
CHEMBL1961873

>  <Source Description>  (837) 
GSK Published Kinase Inhibitor Set

>  <Document Journal>  (837) 
nan

>  <Document Year>  (837) 
nan

>  <Active>  (837) 
0.0

>  <bits>  (837) 
<rdkit.DataStructs.cDataStructs.ExplicitBitVect object at 0x00000159F79321F0>

>  <Group>  (837) 
G2

$$$$

     RDKit          2D

 32 36  0  0  0  0  0  0  0  0999 V2000
   -3.0000   -5.1962    0.0000 C   0  0  0  0  0  0  0  0  0  0  0  0
   -1.5000   -5.1962    0.0000 C   0  0  0  0  0  0  0  0  0  0  0  0
   -0.7500   -3.8971    0.0000 C   0  0  0  0  0  0  0  0  0  0  0  0
    0.7500   -3.8971    0.0000 C   0  0  0  0  0  0  0  0  0  0  0  0
    1.5000   -5.1962    0.0000 O   0  0  0  0  0  0  0  0  0  0  0  0
    1.5000   -2.5981    0.0000 N   0  0  0  0  0  0  0  0  0  0  0  0
    3.0000   -2.5981    0.0000 C   0  0  0  0  0  0  0  0  0  0  0  0
    0.7500   -1.2990    0.0000 C   0  0  0  0  0  0  0  0  0  0  0  0
    1.5000    0.0000    0.0000 C   0  0  0  0  0  0  0  0  0  0  0  0
    0.7500    1.2990    0.0000 N   0  0  0  0  0  0  0  0  0  0  0  0
   -0.7500    1.2990    0.0000 C   0  0  0  0  0  0  0  0  0  0  0  0
   -1.5000    2.5981    0.0000 N   0  0  0  0  0  0  0  0  0  0  0  0
   -2.9918    2.7549    0.0000 C   0  0  0  0  0  0  0  0  0  0  0  0
   -3.3037    4.2221    0.0000 C   0  0  0  0  0  0  0  0  0  0  0  0
   -2.0046    4.9721    0.0000 N   0  0  0  0  0  0  0  0  0  0  0  0
   -0.8899    3.9684    0.0000 C   0  0  0  0  0  0  0  0  0  0  0  0
    0.5773    4.2803    0.0000 C   0  0  0  0  0  0  0  0  0  0  0  0
    1.5810    3.1655    0.0000 C   0  0  0  0  0  0  0  0  0  0  0  0
    3.0482    3.4774    0.0000 C   0  0  0  0  0  0  0  0  0  0  0  0
    3.5118    4.9040    0.0000 C   0  0  0  0  0  0  0  0  0  0  0  0
    4.9790    5.2159    0.0000 F   0  0  0  0  0  0  0  0  0  0  0  0
    2.5081    6.0187    0.0000 C   0  0  0  0  0  0  0  0  0  0  0  0
    1.0409    5.7068    0.0000 C   0  0  0  0  0  0  0  0  0  0  0  0
   -1.5000    0.0000    0.0000 N   0  0  0  0  0  0  0  0  0  0  0  0
   -0.7500   -1.2990    0.0000 C   0  0  0  0  0  0  0  0  0  0  0  0
   -1.5000   -2.5981    0.0000 N   0  0  0  0  0  0  0  0  0  0  0  0
   -3.0000   -2.5981    0.0000 C   0  0  0  0  0  0  0  0  0  0  0  0
   -3.8817   -3.8116    0.0000 C   0  0  0  0  0  0  0  0  0  0  0  0
   -5.3083   -3.3481    0.0000 C   0  0  0  0  0  0  0  0  0  0  0  0
   -5.3083   -1.8481    0.0000 N   0  0  0  0  0  0  0  0  0  0  0  0
   -6.5218   -0.9664    0.0000 C   0  0  0  0  0  0  0  0  0  0  0  0
   -3.8817   -1.3846    0.0000 N   0  0  0  0  0  0  0  0  0  0  0  0
  1  2  1  0
  3  2  1  1
  3  4  1  0
  4  5  2  0
  4  6  1  0
  6  7  1  0
  6  8  1  0
  8  9  2  0
  9 10  1  0
 10 11  2  0
 11 12  1  0
 12 13  1  0
 13 14  2  0
 14 15  1  0
 15 16  2  0
 16 17  1  0
 17 18  2  0
 18 19  1  0
 19 20  2  0
 20 21  1  0
 20 22  1  0
 22 23  2  0
 11 24  1  0
 24 25  2  0
 25 26  1  0
 26 27  1  0
 27 28  1  0
 28 29  2  0
 29 30  1  0
 30 31  1  0
 30 32  1  0
 26  3  1  0
 32 27  2  0
 25  8  1  0
 16 12  1  0
 23 17  1  0
M  END
>  <Compound_ID>  (838) 
CHEMBL2402081

>  <Molecule Name>  (838) 
nan

>  <Molecular Weight>  (838) 
432.46

>  <AlogP>  (838) 
3.1

>  <Smiles>  (838) 
CC[C@@H]1C(=O)N(C)c2cnc(-n3ccnc3-c3ccc(F)cc3)nc2N1c1ccn(C)n1

>  <Standard Type>  (838) 
Inhibition

>  <Standard Relation>  (838) 
'='

>  <Standard Units>  (838) 
%

>  <Standard Value>  (838) 
20.0

>  <Assay ChEMBL ID>  (838) 
CHEMBL2406550

>  <Assay Description>  (838) 
Inhibition of NTRK1 (unknown origin) at 10 uM relative to control

>  <BAO Format ID>  (838) 
BAO_0000357

>  <BAO Label>  (838) 
single protein format

>  <Assay Organism>  (838) 
Homo sapiens

>  <Target ChEMBL ID>  (838) 
CHEMBL2815

>  <Target Name>  (838) 
Nerve growth factor receptor Trk-A

>  <Target Organism>  (838) 
Homo sapiens

>  <Target Type>  (838) 
SINGLE PROTEIN

>  <Document ChEMBL ID>  (838) 
CHEMBL2401733

>  <Source Description>  (838) 
Scientific Literature

>  <Document Journal>  (838) 
Bioorg Med Chem Lett

>  <Document Year>  (838) 
2013.0

>  <Active>  (838) 
0.0

>  <bits>  (838) 
<rdkit.DataStructs.cDataStructs.ExplicitBitVect object at 0x00000159F79337D0>

>  <Group>  (838) 
G2

$$$$

     RDKit          2D

 20 21  0  0  0  0  0  0  0  0999 V2000
    5.2500   -1.2990    0.0000 C   0  0  0  0  0  0  0  0  0  0  0  0
    3.7500   -1.2990    0.0000 N   0  0  0  0  0  0  0  0  0  0  0  0
    3.0000    0.0000    0.0000 C   0  0  0  0  0  0  0  0  0  0  0  0
    3.7500    1.2990    0.0000 O   0  0  0  0  0  0  0  0  0  0  0  0
    1.5000    0.0000    0.0000 C   0  0  0  0  0  0  0  0  0  0  0  0
    0.7500   -1.2990    0.0000 C   0  0  0  0  0  0  0  0  0  0  0  0
   -0.7500   -1.2990    0.0000 N   0  0  0  0  0  0  0  0  0  0  0  0
   -1.5000    0.0000    0.0000 C   0  0  0  0  0  0  0  0  0  0  0  0
   -0.7500    1.2990    0.0000 C   0  0  0  0  0  0  0  0  0  0  0  0
   -1.5000    2.5981    0.0000 C   0  0  0  0  0  0  0  0  0  0  0  0
   -0.7500    3.8971    0.0000 C   0  0  0  0  0  0  0  0  0  0  0  0
   -1.5000    5.1962    0.0000 C   0  0  0  0  0  0  0  0  0  0  0  0
   -0.7500    6.4952    0.0000 C   0  0  0  0  0  0  0  0  0  0  0  0
    0.7500    6.4952    0.0000 Cl  0  0  0  0  0  0  0  0  0  0  0  0
   -1.5000    7.7942    0.0000 C   0  0  0  0  0  0  0  0  0  0  0  0
   -3.0000    7.7942    0.0000 C   0  0  0  0  0  0  0  0  0  0  0  0
   -3.7500    6.4952    0.0000 C   0  0  0  0  0  0  0  0  0  0  0  0
   -3.0000    5.1962    0.0000 C   0  0  0  0  0  0  0  0  0  0  0  0
   -3.7500    3.8971    0.0000 Cl  0  0  0  0  0  0  0  0  0  0  0  0
    0.7500    1.2990    0.0000 C   0  0  0  0  0  0  0  0  0  0  0  0
  1  2  1  0
  2  3  1  0
  3  4  2  0
  3  5  1  0
  5  6  2  0
  6  7  1  0
  7  8  2  0
  8  9  1  0
  9 10  1  0
 10 11  2  0
 11 12  1  0
 12 13  2  0
 13 14  1  0
 13 15  1  0
 15 16  2  0
 16 17  1  0
 17 18  2  0
 18 19  1  0
  9 20  2  0
 20  5  1  0
 18 12  1  0
M  END
>  <Compound_ID>  (839) 
CHEMBL263796

>  <Molecule Name>  (839) 
GW445014X

>  <Molecular Weight>  (839) 
307.18

>  <AlogP>  (839) 
3.92

>  <Smiles>  (839) 
CNC(=O)c1cncc(/C=C/c2c(Cl)cccc2Cl)c1

>  <Standard Type>  (839) 
Inhibition

>  <Standard Relation>  (839) 
'='

>  <Standard Units>  (839) 
%

>  <Standard Value>  (839) 
6.89

>  <Assay ChEMBL ID>  (839) 
CHEMBL1962185

>  <Assay Description>  (839) 
GSK_PKIS: TRKA mean inhibition at 1 uM [Nanosyn]

>  <BAO Format ID>  (839) 
BAO_0000357

>  <BAO Label>  (839) 
single protein format

>  <Assay Organism>  (839) 
None

>  <Target ChEMBL ID>  (839) 
CHEMBL2815

>  <Target Name>  (839) 
Nerve growth factor receptor Trk-A

>  <Target Organism>  (839) 
Homo sapiens

>  <Target Type>  (839) 
SINGLE PROTEIN

>  <Document ChEMBL ID>  (839) 
CHEMBL1961873

>  <Source Description>  (839) 
GSK Published Kinase Inhibitor Set

>  <Document Journal>  (839) 
nan

>  <Document Year>  (839) 
nan

>  <Active>  (839) 
0.0

>  <bits>  (839) 
<rdkit.DataStructs.cDataStructs.ExplicitBitVect object at 0x00000159F7932110>

>  <Group>  (839) 
G2

$$$$

     RDKit          2D

 32 36  0  0  0  0  0  0  0  0999 V2000
    1.5000    0.0000    0.0000 C   0  0  0  0  0  0  0  0  0  0  0  0
    0.7500   -1.2990    0.0000 C   0  0  0  0  0  0  0  0  0  0  0  0
   -0.7500   -1.2990    0.0000 C   0  0  0  0  0  0  0  0  0  0  0  0
   -1.5000    0.0000    0.0000 C   0  0  0  0  0  0  0  0  0  0  0  0
   -3.0000    0.0000    0.0000 C   0  0  0  0  0  0  0  0  0  0  0  0
   -3.8817   -1.2135    0.0000 N   0  0  0  0  0  0  0  0  0  0  0  0
   -5.3083   -0.7500    0.0000 N   0  0  0  0  0  0  0  0  0  0  0  0
   -5.3083    0.7500    0.0000 C   0  0  0  0  0  0  0  0  0  0  0  0
   -3.8817    1.2135    0.0000 C   0  0  0  0  0  0  0  0  0  0  0  0
   -3.4182    2.6401    0.0000 C   0  0  0  0  0  0  0  0  0  0  0  0
   -1.9509    2.9520    0.0000 C   0  0  0  0  0  0  0  0  0  0  0  0
   -1.4874    4.3786    0.0000 C   0  0  0  0  0  0  0  0  0  0  0  0
   -2.4911    5.4933    0.0000 N   0  0  0  0  0  0  0  0  0  0  0  0
   -3.9583    5.1814    0.0000 C   0  0  0  0  0  0  0  0  0  0  0  0
   -4.9620    6.2961    0.0000 C   0  0  0  0  0  0  0  0  0  0  0  0
   -4.4985    7.7227    0.0000 C   0  0  0  0  0  0  0  0  0  0  0  0
   -5.5022    8.8374    0.0000 C   0  0  0  0  0  0  0  0  0  0  0  0
   -6.9694    8.5256    0.0000 C   0  0  0  0  0  0  0  0  0  0  0  0
   -7.9731    9.6403    0.0000 O   0  0  0  0  0  0  0  0  0  0  0  0
   -7.5096   11.0669    0.0000 C   0  0  0  0  0  0  0  0  0  0  0  0
   -8.5133   12.1816    0.0000 C   0  0  0  0  0  0  0  0  0  0  0  0
   -8.0498   13.6082    0.0000 N   0  0  0  0  0  0  0  0  0  0  0  0
   -6.5825   13.9200    0.0000 C   0  0  0  0  0  0  0  0  0  0  0  0
   -6.1190   15.3466    0.0000 C   0  0  0  0  0  0  0  0  0  0  0  0
   -7.1227   16.4613    0.0000 O   0  0  0  0  0  0  0  0  0  0  0  0
   -8.5899   16.1495    0.0000 C   0  0  0  0  0  0  0  0  0  0  0  0
   -9.0534   14.7229    0.0000 C   0  0  0  0  0  0  0  0  0  0  0  0
   -7.4329    7.0990    0.0000 C   0  0  0  0  0  0  0  0  0  0  0  0
   -6.4292    5.9843    0.0000 C   0  0  0  0  0  0  0  0  0  0  0  0
   -4.4218    3.7548    0.0000 C   0  0  0  0  0  0  0  0  0  0  0  0
   -0.7500    1.2990    0.0000 N   0  0  0  0  0  0  0  0  0  0  0  0
    0.7500    1.2990    0.0000 C   0  0  0  0  0  0  0  0  0  0  0  0
  1  2  2  0
  2  3  1  0
  3  4  2  0
  4  5  1  0
  5  6  2  0
  6  7  1  0
  7  8  1  0
  8  9  2  0
  9 10  1  0
 10 11  2  0
 11 12  1  0
 12 13  2  0
 13 14  1  0
 14 15  1  0
 15 16  2  0
 16 17  1  0
 17 18  2  0
 18 19  1  0
 19 20  1  0
 20 21  1  0
 21 22  1  0
 22 23  1  0
 23 24  1  0
 24 25  1  0
 25 26  1  0
 26 27  1  0
 18 28  1  0
 28 29  2  0
 14 30  2  0
  4 31  1  0
 31 32  2  0
 32  1  1  0
  9  5  1  0
 30 10  1  0
 29 15  1  0
 27 22  1  0
M  END
>  <Compound_ID>  (840) 
CHEMBL205158

>  <Molecule Name>  (840) 
GW695874X

>  <Molecular Weight>  (840) 
427.51

>  <AlogP>  (840) 
3.91

>  <Smiles>  (840) 
c1ccc(-c2n[nH]cc2-c2ccnc(-c3ccc(OCCN4CCOCC4)cc3)c2)nc1

>  <Standard Type>  (840) 
Inhibition

>  <Standard Relation>  (840) 
'='

>  <Standard Units>  (840) 
%

>  <Standard Value>  (840) 
-0.7

>  <Assay ChEMBL ID>  (840) 
CHEMBL1962185

>  <Assay Description>  (840) 
GSK_PKIS: TRKA mean inhibition at 1 uM [Nanosyn]

>  <BAO Format ID>  (840) 
BAO_0000357

>  <BAO Label>  (840) 
single protein format

>  <Assay Organism>  (840) 
None

>  <Target ChEMBL ID>  (840) 
CHEMBL2815

>  <Target Name>  (840) 
Nerve growth factor receptor Trk-A

>  <Target Organism>  (840) 
Homo sapiens

>  <Target Type>  (840) 
SINGLE PROTEIN

>  <Document ChEMBL ID>  (840) 
CHEMBL1961873

>  <Source Description>  (840) 
GSK Published Kinase Inhibitor Set

>  <Document Journal>  (840) 
nan

>  <Document Year>  (840) 
nan

>  <Active>  (840) 
0.0

>  <bits>  (840) 
<rdkit.DataStructs.cDataStructs.ExplicitBitVect object at 0x00000159F7931E00>

>  <Group>  (840) 
G2

$$$$

     RDKit          2D

 21 24  0  0  0  0  0  0  0  0999 V2000
   -4.6740   -7.4303    0.0000 C   0  0  0  0  0  0  0  0  0  0  0  0
   -3.3037   -6.8202    0.0000 N   0  0  0  0  0  0  0  0  0  0  0  0
   -2.9918   -5.3529    0.0000 N   0  0  0  0  0  0  0  0  0  0  0  0
   -1.5000   -5.1962    0.0000 C   0  0  0  0  0  0  0  0  0  0  0  0
   -0.7500   -3.8971    0.0000 C   0  0  0  0  0  0  0  0  0  0  0  0
    0.7500   -3.8971    0.0000 C   0  0  0  0  0  0  0  0  0  0  0  0
    1.5000   -2.5981    0.0000 C   0  0  0  0  0  0  0  0  0  0  0  0
    0.7500   -1.2990    0.0000 C   0  0  0  0  0  0  0  0  0  0  0  0
    1.5000    0.0000    0.0000 C   0  0  0  0  0  0  0  0  0  0  0  0
    0.7500    1.2990    0.0000 C   0  0  0  0  0  0  0  0  0  0  0  0
   -0.7500    1.2990    0.0000 C   0  0  0  0  0  0  0  0  0  0  0  0
   -1.5000    0.0000    0.0000 C   0  0  0  0  0  0  0  0  0  0  0  0
   -0.7500   -1.2990    0.0000 C   0  0  0  0  0  0  0  0  0  0  0  0
   -1.5000   -2.5981    0.0000 C   0  0  0  0  0  0  0  0  0  0  0  0
   -0.8899   -6.5665    0.0000 C   0  0  0  0  0  0  0  0  0  0  0  0
    0.5367   -7.0300    0.0000 C   0  0  0  0  0  0  0  0  0  0  0  0
    1.6514   -6.0263    0.0000 N   0  0  0  0  0  0  0  0  0  0  0  0
    0.8486   -8.4972    0.0000 N   0  0  0  0  0  0  0  0  0  0  0  0
   -0.2662   -9.5009    0.0000 C   0  0  0  0  0  0  0  0  0  0  0  0
   -1.6927   -9.0374    0.0000 N   0  0  0  0  0  0  0  0  0  0  0  0
   -2.0046   -7.5702    0.0000 C   0  0  0  0  0  0  0  0  0  0  0  0
  1  2  1  0
  2  3  1  0
  3  4  2  0
  4  5  1  0
  5  6  2  0
  6  7  1  0
  7  8  2  0
  8  9  1  0
  9 10  2  0
 10 11  1  0
 11 12  2  0
 12 13  1  0
 13 14  2  0
  4 15  1  0
 15 16  2  0
 16 17  1  0
 16 18  1  0
 18 19  2  0
 19 20  1  0
 20 21  2  0
 21  2  1  0
 14  5  1  0
 21 15  1  0
 13  8  1  0
M  END
>  <Compound_ID>  (841) 
CHEMBL1234815

>  <Molecule Name>  (841) 
nan

>  <Molecular Weight>  (841) 
275.31

>  <AlogP>  (841) 
2.77

>  <Smiles>  (841) 
Cn1nc(-c2ccc3ccccc3c2)c2c(N)ncnc21

>  <Standard Type>  (841) 
Inhibition

>  <Standard Relation>  (841) 
'='

>  <Standard Units>  (841) 
%

>  <Standard Value>  (841) 
-1.0

>  <Assay ChEMBL ID>  (841) 
CHEMBL1244233

>  <Assay Description>  (841) 
Inhibition of TRKA at 1 uM after 60 mins by FRET assay in presence of 100 uM ATP

>  <BAO Format ID>  (841) 
BAO_0000357

>  <BAO Label>  (841) 
single protein format

>  <Assay Organism>  (841) 
None

>  <Target ChEMBL ID>  (841) 
CHEMBL2815

>  <Target Name>  (841) 
Nerve growth factor receptor Trk-A

>  <Target Organism>  (841) 
Homo sapiens

>  <Target Type>  (841) 
SINGLE PROTEIN

>  <Document ChEMBL ID>  (841) 
CHEMBL1240340

>  <Source Description>  (841) 
Scientific Literature

>  <Document Journal>  (841) 
Nat Chem Biol

>  <Document Year>  (841) 
2008.0

>  <Active>  (841) 
0.0

>  <bits>  (841) 
<rdkit.DataStructs.cDataStructs.ExplicitBitVect object at 0x00000159F7931460>

>  <Group>  (841) 
G2

$$$$

     RDKit          2D

 26 28  0  0  0  0  0  0  0  0999 V2000
    5.2500    1.2990    0.0000 C   0  0  0  0  0  0  0  0  0  0  0  0
    4.5000    0.0000    0.0000 C   0  0  0  0  0  0  0  0  0  0  0  0
    3.0000    0.0000    0.0000 S   0  0  0  0  0  0  0  0  0  0  0  0
    3.0000    1.5000    0.0000 O   0  0  0  0  0  0  0  0  0  0  0  0
    3.0000   -1.5000    0.0000 O   0  0  0  0  0  0  0  0  0  0  0  0
    1.5000    0.0000    0.0000 C   0  0  0  0  0  0  0  0  0  0  0  0
    0.7500   -1.2990    0.0000 C   0  0  0  0  0  0  0  0  0  0  0  0
   -0.7500   -1.2990    0.0000 C   0  0  0  0  0  0  0  0  0  0  0  0
   -1.5000    0.0000    0.0000 C   0  0  0  0  0  0  0  0  0  0  0  0
   -3.0000    0.0000    0.0000 O   0  0  0  0  0  0  0  0  0  0  0  0
   -3.7500   -1.2990    0.0000 C   0  0  0  0  0  0  0  0  0  0  0  0
   -0.7500    1.2990    0.0000 C   0  0  0  0  0  0  0  0  0  0  0  0
   -1.5000    2.5981    0.0000 N   0  0  0  0  0  0  0  0  0  0  0  0
   -0.7500    3.8971    0.0000 C   0  0  0  0  0  0  0  0  0  0  0  0
   -1.3601    5.2674    0.0000 N   0  0  0  0  0  0  0  0  0  0  0  0
   -0.2454    6.2711    0.0000 C   0  0  0  0  0  0  0  0  0  0  0  0
    1.0537    5.5211    0.0000 C   0  0  0  0  0  0  0  0  0  0  0  0
    2.4240    6.1312    0.0000 C   0  0  0  0  0  0  0  0  0  0  0  0
    3.6375    5.2496    0.0000 C   0  0  0  0  0  0  0  0  0  0  0  0
    5.0078    5.8597    0.0000 C   0  0  0  0  0  0  0  0  0  0  0  0
    5.1646    7.3514    0.0000 C   0  0  0  0  0  0  0  0  0  0  0  0
    3.9511    8.2331    0.0000 C   0  0  0  0  0  0  0  0  0  0  0  0
    2.5808    7.6230    0.0000 C   0  0  0  0  0  0  0  0  0  0  0  0
    1.3672    8.5047    0.0000 Cl  0  0  0  0  0  0  0  0  0  0  0  0
    0.7418    4.0539    0.0000 O   0  0  0  0  0  0  0  0  0  0  0  0
    0.7500    1.2990    0.0000 C   0  0  0  0  0  0  0  0  0  0  0  0
  1  2  1  0
  2  3  1  0
  3  4  2  0
  3  5  2  0
  3  6  1  0
  6  7  2  0
  7  8  1  0
  8  9  2  0
  9 10  1  0
 10 11  1  0
  9 12  1  0
 12 13  1  0
 13 14  1  0
 14 15  2  0
 15 16  1  0
 16 17  2  0
 17 18  1  0
 18 19  2  0
 19 20  1  0
 20 21  2  0
 21 22  1  0
 22 23  2  0
 23 24  1  0
 17 25  1  0
 12 26  2  0
 26  6  1  0
 25 14  1  0
 23 18  1  0
M  END
>  <Compound_ID>  (842) 
CHEMBL179453

>  <Molecule Name>  (842) 
GW622055X

>  <Molecular Weight>  (842) 
392.86

>  <AlogP>  (842) 
4.54

>  <Smiles>  (842) 
CCS(=O)(=O)c1ccc(OC)c(Nc2ncc(-c3ccccc3Cl)o2)c1

>  <Standard Type>  (842) 
Inhibition

>  <Standard Relation>  (842) 
'='

>  <Standard Units>  (842) 
%

>  <Standard Value>  (842) 
5.58

>  <Assay ChEMBL ID>  (842) 
CHEMBL1962185

>  <Assay Description>  (842) 
GSK_PKIS: TRKA mean inhibition at 1 uM [Nanosyn]

>  <BAO Format ID>  (842) 
BAO_0000357

>  <BAO Label>  (842) 
single protein format

>  <Assay Organism>  (842) 
None

>  <Target ChEMBL ID>  (842) 
CHEMBL2815

>  <Target Name>  (842) 
Nerve growth factor receptor Trk-A

>  <Target Organism>  (842) 
Homo sapiens

>  <Target Type>  (842) 
SINGLE PROTEIN

>  <Document ChEMBL ID>  (842) 
CHEMBL1961873

>  <Source Description>  (842) 
GSK Published Kinase Inhibitor Set

>  <Document Journal>  (842) 
nan

>  <Document Year>  (842) 
nan

>  <Active>  (842) 
0.0

>  <bits>  (842) 
<rdkit.DataStructs.cDataStructs.ExplicitBitVect object at 0x00000159F7933CA0>

>  <Group>  (842) 
G2

$$$$

     RDKit          2D

 34 37  0  0  0  0  0  0  0  0999 V2000
    0.9345    9.0350    0.0000 C   0  0  0  0  0  0  0  0  0  0  0  0
    1.3980    7.6085    0.0000 N   0  0  0  0  0  0  0  0  0  0  0  0
    0.3943    6.4937    0.0000 C   0  0  0  0  0  0  0  0  0  0  0  0
   -1.0729    6.8056    0.0000 O   0  0  0  0  0  0  0  0  0  0  0  0
    0.8578    5.0672    0.0000 C   0  0  0  0  0  0  0  0  0  0  0  0
   -0.0239    3.8536    0.0000 S   0  0  0  0  0  0  0  0  0  0  0  0
    0.8578    2.6401    0.0000 C   0  0  0  0  0  0  0  0  0  0  0  0
    0.3943    1.2135    0.0000 N   0  0  0  0  0  0  0  0  0  0  0  0
    1.2760    0.0000    0.0000 C   0  0  0  0  0  0  0  0  0  0  0  0
    0.3943   -1.2135    0.0000 N   0  0  0  0  0  0  0  0  0  0  0  0
   -1.0323   -0.7500    0.0000 C   0  0  0  0  0  0  0  0  0  0  0  0
   -2.3313   -1.5000    0.0000 C   0  0  0  0  0  0  0  0  0  0  0  0
   -3.6304   -0.7500    0.0000 C   0  0  0  0  0  0  0  0  0  0  0  0
   -4.9294   -1.5000    0.0000 O   0  0  0  0  0  0  0  0  0  0  0  0
   -6.2284   -0.7500    0.0000 C   0  0  0  0  0  0  0  0  0  0  0  0
   -3.6304    0.7500    0.0000 C   0  0  0  0  0  0  0  0  0  0  0  0
   -4.9294    1.5000    0.0000 O   0  0  0  0  0  0  0  0  0  0  0  0
   -4.9294    3.0000    0.0000 C   0  0  0  0  0  0  0  0  0  0  0  0
   -2.3313    1.5000    0.0000 C   0  0  0  0  0  0  0  0  0  0  0  0
   -1.0323    0.7500    0.0000 C   0  0  0  0  0  0  0  0  0  0  0  0
    2.2844    3.1036    0.0000 C   0  0  0  0  0  0  0  0  0  0  0  0
    2.2844    4.6036    0.0000 C   0  0  0  0  0  0  0  0  0  0  0  0
    3.4979    5.4853    0.0000 O   0  0  0  0  0  0  0  0  0  0  0  0
    4.8683    4.8752    0.0000 C   0  0  0  0  0  0  0  0  0  0  0  0
    6.0818    5.7569    0.0000 C   0  0  0  0  0  0  0  0  0  0  0  0
    7.4521    5.1468    0.0000 C   0  0  0  0  0  0  0  0  0  0  0  0
    8.6656    6.0285    0.0000 C   0  0  0  0  0  0  0  0  0  0  0  0
    8.5088    7.5202    0.0000 C   0  0  0  0  0  0  0  0  0  0  0  0
    7.1385    8.1303    0.0000 C   0  0  0  0  0  0  0  0  0  0  0  0
    5.9250    7.2487    0.0000 C   0  0  0  0  0  0  0  0  0  0  0  0
    4.5547    7.8588    0.0000 C   0  0  0  0  0  0  0  0  0  0  0  0
    3.1843    8.4689    0.0000 F   0  0  0  0  0  0  0  0  0  0  0  0
    5.1648    9.2291    0.0000 F   0  0  0  0  0  0  0  0  0  0  0  0
    3.9446    6.4885    0.0000 F   0  0  0  0  0  0  0  0  0  0  0  0
  1  2  1  0
  2  3  1  0
  3  4  2  0
  3  5  1  0
  5  6  1  0
  6  7  1  0
  7  8  1  0
  8  9  1  0
  9 10  2  0
 10 11  1  0
 11 12  2  0
 12 13  1  0
 13 14  1  0
 14 15  1  0
 13 16  2  0
 16 17  1  0
 17 18  1  0
 16 19  1  0
 19 20  2  0
  7 21  2  0
 21 22  1  0
 22 23  1  0
 23 24  1  0
 24 25  1  0
 25 26  2  0
 26 27  1  0
 27 28  2  0
 28 29  1  0
 29 30  2  0
 30 31  1  0
 31 32  1  0
 31 33  1  0
 31 34  1  0
 22  5  2  0
 30 25  1  0
 20  8  1  0
 20 11  1  0
M  END
>  <Compound_ID>  (843) 
CHEMBL518968

>  <Molecule Name>  (843) 
GSK-1030061A

>  <Molecular Weight>  (843) 
491.49

>  <AlogP>  (843) 
5.06

>  <Smiles>  (843) 
CNC(=O)c1sc(-n2cnc3cc(OC)c(OC)cc32)cc1OCc1ccccc1C(F)(F)F

>  <Standard Type>  (843) 
Inhibition

>  <Standard Relation>  (843) 
'='

>  <Standard Units>  (843) 
%

>  <Standard Value>  (843) 
4.9

>  <Assay ChEMBL ID>  (843) 
CHEMBL1962185

>  <Assay Description>  (843) 
GSK_PKIS: TRKA mean inhibition at 1 uM [Nanosyn]

>  <BAO Format ID>  (843) 
BAO_0000357

>  <BAO Label>  (843) 
single protein format

>  <Assay Organism>  (843) 
None

>  <Target ChEMBL ID>  (843) 
CHEMBL2815

>  <Target Name>  (843) 
Nerve growth factor receptor Trk-A

>  <Target Organism>  (843) 
Homo sapiens

>  <Target Type>  (843) 
SINGLE PROTEIN

>  <Document ChEMBL ID>  (843) 
CHEMBL1961873

>  <Source Description>  (843) 
GSK Published Kinase Inhibitor Set

>  <Document Journal>  (843) 
nan

>  <Document Year>  (843) 
nan

>  <Active>  (843) 
0.0

>  <bits>  (843) 
<rdkit.DataStructs.cDataStructs.ExplicitBitVect object at 0x00000159F79336F0>

>  <Group>  (843) 
G2

$$$$

     RDKit          2D

 17 19  0  0  0  0  0  0  0  0999 V2000
   -3.7548   -2.1855    0.0000 C   0  0  0  0  0  0  0  0  0  0  0  0
   -2.6401   -3.1891    0.0000 C   0  0  0  0  0  0  0  0  0  0  0  0
   -1.2135   -2.7256    0.0000 N   0  0  0  0  0  0  0  0  0  0  0  0
   -0.0000   -3.6073    0.0000 C   0  0  0  0  0  0  0  0  0  0  0  0
   -0.0000   -5.1073    0.0000 C   0  0  0  0  0  0  0  0  0  0  0  0
    1.2135   -5.9890    0.0000 N   0  0  0  0  0  0  0  0  0  0  0  0
    0.7500   -7.4156    0.0000 O   0  0  0  0  0  0  0  0  0  0  0  0
   -0.7500   -7.4156    0.0000 N   0  0  0  0  0  0  0  0  0  0  0  0
   -1.2135   -5.9890    0.0000 C   0  0  0  0  0  0  0  0  0  0  0  0
   -2.6401   -5.5255    0.0000 N   0  0  0  0  0  0  0  0  0  0  0  0
    1.2135   -2.7256    0.0000 N   0  0  0  0  0  0  0  0  0  0  0  0
    0.7500   -1.2990    0.0000 C   0  0  0  0  0  0  0  0  0  0  0  0
    1.5000    0.0000    0.0000 C   0  0  0  0  0  0  0  0  0  0  0  0
    0.7500    1.2990    0.0000 C   0  0  0  0  0  0  0  0  0  0  0  0
   -0.7500    1.2990    0.0000 C   0  0  0  0  0  0  0  0  0  0  0  0
   -1.5000    0.0000    0.0000 C   0  0  0  0  0  0  0  0  0  0  0  0
   -0.7500   -1.2990    0.0000 C   0  0  0  0  0  0  0  0  0  0  0  0
  1  2  1  0
  2  3  1  0
  3  4  1  0
  4  5  1  0
  5  6  2  0
  6  7  1  0
  7  8  1  0
  8  9  2  0
  9 10  1  0
  4 11  2  0
 11 12  1  0
 12 13  2  0
 13 14  1  0
 14 15  2  0
 15 16  1  0
 16 17  2  0
 17  3  1  0
  9  5  1  0
 17 12  1  0
M  END
>  <Compound_ID>  (844) 
CHEMBL365286

>  <Molecule Name>  (844) 
GW549034X

>  <Molecular Weight>  (844) 
229.24

>  <AlogP>  (844) 
1.69

>  <Smiles>  (844) 
CCn1c(-c2nonc2N)nc2ccccc21

>  <Standard Type>  (844) 
Inhibition

>  <Standard Relation>  (844) 
'='

>  <Standard Units>  (844) 
%

>  <Standard Value>  (844) 
3.39

>  <Assay ChEMBL ID>  (844) 
CHEMBL1962184

>  <Assay Description>  (844) 
GSK_PKIS: TRKA mean inhibition at 0.1 uM [Nanosyn]

>  <BAO Format ID>  (844) 
BAO_0000357

>  <BAO Label>  (844) 
single protein format

>  <Assay Organism>  (844) 
None

>  <Target ChEMBL ID>  (844) 
CHEMBL2815

>  <Target Name>  (844) 
Nerve growth factor receptor Trk-A

>  <Target Organism>  (844) 
Homo sapiens

>  <Target Type>  (844) 
SINGLE PROTEIN

>  <Document ChEMBL ID>  (844) 
CHEMBL1961873

>  <Source Description>  (844) 
GSK Published Kinase Inhibitor Set

>  <Document Journal>  (844) 
nan

>  <Document Year>  (844) 
nan

>  <Active>  (844) 
0.0

>  <bits>  (844) 
<rdkit.DataStructs.cDataStructs.ExplicitBitVect object at 0x00000159F7933300>

>  <Group>  (844) 
G2

$$$$

     RDKit          2D

 21 23  0  0  0  0  0  0  0  0999 V2000
   -6.7407   -9.9851    0.0000 F   0  0  0  0  0  0  0  0  0  0  0  0
   -6.4289   -8.5179    0.0000 C   0  0  0  0  0  0  0  0  0  0  0  0
   -7.8961   -8.2060    0.0000 F   0  0  0  0  0  0  0  0  0  0  0  0
   -4.9617   -8.8297    0.0000 F   0  0  0  0  0  0  0  0  0  0  0  0
   -6.1170   -7.0506    0.0000 C   0  0  0  0  0  0  0  0  0  0  0  0
   -4.6904   -6.5871    0.0000 N   0  0  0  0  0  0  0  0  0  0  0  0
   -4.3786   -5.1199    0.0000 C   0  0  0  0  0  0  0  0  0  0  0  0
   -5.4933   -4.1162    0.0000 N   0  0  0  0  0  0  0  0  0  0  0  0
   -5.1814   -2.6490    0.0000 C   0  0  0  0  0  0  0  0  0  0  0  0
   -3.7548   -2.1855    0.0000 C   0  0  0  0  0  0  0  0  0  0  0  0
   -2.6401   -3.1891    0.0000 C   0  0  0  0  0  0  0  0  0  0  0  0
   -1.2135   -2.7256    0.0000 C   0  0  0  0  0  0  0  0  0  0  0  0
   -0.0000   -3.6073    0.0000 C   0  0  0  0  0  0  0  0  0  0  0  0
    1.2135   -2.7256    0.0000 N   0  0  0  0  0  0  0  0  0  0  0  0
    0.7500   -1.2990    0.0000 N   0  0  0  0  0  0  0  0  0  0  0  0
    1.5000    0.0000    0.0000 N   0  0  0  0  0  0  0  0  0  0  0  0
    0.7500    1.2990    0.0000 C   0  0  0  0  0  0  0  0  0  0  0  0
   -0.7500    1.2990    0.0000 C   0  0  0  0  0  0  0  0  0  0  0  0
   -1.5000    0.0000    0.0000 C   0  0  0  0  0  0  0  0  0  0  0  0
   -0.7500   -1.2990    0.0000 C   0  0  0  0  0  0  0  0  0  0  0  0
   -2.9520   -4.6564    0.0000 N   0  0  0  0  0  0  0  0  0  0  0  0
  1  2  1  0
  2  3  1  0
  2  4  1  0
  2  5  1  0
  5  6  1  0
  6  7  1  0
  7  8  2  0
  8  9  1  0
  9 10  2  0
 10 11  1  0
 11 12  1  0
 12 13  1  0
 13 14  2  0
 14 15  1  0
 15 16  1  0
 16 17  2  0
 17 18  1  0
 18 19  2  0
 19 20  1  0
 11 21  2  0
 21  7  1  0
 20 12  2  0
 20 15  1  0
M  END
>  <Compound_ID>  (845) 
CHEMBL446024

>  <Molecule Name>  (845) 
GW683003X

>  <Molecular Weight>  (845) 
294.24

>  <AlogP>  (845) 
2.16

>  <Smiles>  (845) 
FC(F)(F)CNc1nccc(-c2cnn3ncccc23)n1

>  <Standard Type>  (845) 
Inhibition

>  <Standard Relation>  (845) 
'='

>  <Standard Units>  (845) 
%

>  <Standard Value>  (845) 
-0.41

>  <Assay ChEMBL ID>  (845) 
CHEMBL1962184

>  <Assay Description>  (845) 
GSK_PKIS: TRKA mean inhibition at 0.1 uM [Nanosyn]

>  <BAO Format ID>  (845) 
BAO_0000357

>  <BAO Label>  (845) 
single protein format

>  <Assay Organism>  (845) 
None

>  <Target ChEMBL ID>  (845) 
CHEMBL2815

>  <Target Name>  (845) 
Nerve growth factor receptor Trk-A

>  <Target Organism>  (845) 
Homo sapiens

>  <Target Type>  (845) 
SINGLE PROTEIN

>  <Document ChEMBL ID>  (845) 
CHEMBL1961873

>  <Source Description>  (845) 
GSK Published Kinase Inhibitor Set

>  <Document Journal>  (845) 
nan

>  <Document Year>  (845) 
nan

>  <Active>  (845) 
0.0

>  <bits>  (845) 
<rdkit.DataStructs.cDataStructs.ExplicitBitVect object at 0x00000159F7932960>

>  <Group>  (845) 
G2

$$$$

     RDKit          2D

 21 24  0  0  0  0  0  0  0  0999 V2000
    1.2990   -5.8573    0.0000 C   0  0  0  0  0  0  0  0  0  0  0  0
   -0.0000   -5.1073    0.0000 C   0  0  0  0  0  0  0  0  0  0  0  0
   -0.0000   -3.6073    0.0000 C   0  0  0  0  0  0  0  0  0  0  0  0
    1.2135   -2.7256    0.0000 N   0  0  0  0  0  0  0  0  0  0  0  0
    0.7500   -1.2990    0.0000 N   0  0  0  0  0  0  0  0  0  0  0  0
    1.5000    0.0000    0.0000 N   0  0  0  0  0  0  0  0  0  0  0  0
    0.7500    1.2990    0.0000 C   0  0  0  0  0  0  0  0  0  0  0  0
   -0.7500    1.2990    0.0000 C   0  0  0  0  0  0  0  0  0  0  0  0
   -1.5000    0.0000    0.0000 C   0  0  0  0  0  0  0  0  0  0  0  0
   -0.7500   -1.2990    0.0000 C   0  0  0  0  0  0  0  0  0  0  0  0
   -1.2135   -2.7256    0.0000 C   0  0  0  0  0  0  0  0  0  0  0  0
   -2.6401   -3.1891    0.0000 C   0  0  0  0  0  0  0  0  0  0  0  0
   -3.7548   -2.1855    0.0000 C   0  0  0  0  0  0  0  0  0  0  0  0
   -5.1814   -2.6490    0.0000 C   0  0  0  0  0  0  0  0  0  0  0  0
   -5.4933   -4.1162    0.0000 N   0  0  0  0  0  0  0  0  0  0  0  0
   -4.3786   -5.1199    0.0000 C   0  0  0  0  0  0  0  0  0  0  0  0
   -4.6904   -6.5871    0.0000 N   0  0  0  0  0  0  0  0  0  0  0  0
   -6.1170   -7.0506    0.0000 C   0  0  0  0  0  0  0  0  0  0  0  0
   -7.1207   -8.1654    0.0000 C   0  0  0  0  0  0  0  0  0  0  0  0
   -7.5842   -6.7388    0.0000 C   0  0  0  0  0  0  0  0  0  0  0  0
   -2.9520   -4.6564    0.0000 N   0  0  0  0  0  0  0  0  0  0  0  0
  1  2  1  0
  2  3  1  0
  3  4  2  0
  4  5  1  0
  5  6  1  0
  6  7  2  0
  7  8  1  0
  8  9  2  0
  9 10  1  0
 10 11  2  0
 11 12  1  0
 12 13  2  0
 13 14  1  0
 14 15  2  0
 15 16  1  0
 16 17  1  0
 17 18  1  0
 18 19  1  0
 19 20  1  0
 16 21  2  0
 11  3  1  0
 21 12  1  0
 10  5  1  0
 20 18  1  0
M  END
>  <Compound_ID>  (846) 
CHEMBL524057

>  <Molecule Name>  (846) 
GW683768X

>  <Molecular Weight>  (846) 
280.34

>  <AlogP>  (846) 
2.32

>  <Smiles>  (846) 
CCc1nn2ncccc2c1-c1ccnc(NC2CC2)n1

>  <Standard Type>  (846) 
Inhibition

>  <Standard Relation>  (846) 
'='

>  <Standard Units>  (846) 
%

>  <Standard Value>  (846) 
2.38

>  <Assay ChEMBL ID>  (846) 
CHEMBL1962185

>  <Assay Description>  (846) 
GSK_PKIS: TRKA mean inhibition at 1 uM [Nanosyn]

>  <BAO Format ID>  (846) 
BAO_0000357

>  <BAO Label>  (846) 
single protein format

>  <Assay Organism>  (846) 
None

>  <Target ChEMBL ID>  (846) 
CHEMBL2815

>  <Target Name>  (846) 
Nerve growth factor receptor Trk-A

>  <Target Organism>  (846) 
Homo sapiens

>  <Target Type>  (846) 
SINGLE PROTEIN

>  <Document ChEMBL ID>  (846) 
CHEMBL1961873

>  <Source Description>  (846) 
GSK Published Kinase Inhibitor Set

>  <Document Journal>  (846) 
nan

>  <Document Year>  (846) 
nan

>  <Active>  (846) 
0.0

>  <bits>  (846) 
<rdkit.DataStructs.cDataStructs.ExplicitBitVect object at 0x00000159F7933ED0>

>  <Group>  (846) 
G2

$$$$

     RDKit          2D

 30 33  0  0  0  0  0  0  0  0999 V2000
    1.8478   -6.4639    0.0000 C   0  0  0  0  0  0  0  0  0  0  0  0
    2.0046   -4.9721    0.0000 C   0  0  0  0  0  0  0  0  0  0  0  0
    3.3037   -4.2221    0.0000 N   0  0  0  0  0  0  0  0  0  0  0  0
    2.9918   -2.7549    0.0000 N   0  0  0  0  0  0  0  0  0  0  0  0
    1.5000   -2.5981    0.0000 C   0  0  0  0  0  0  0  0  0  0  0  0
    0.7500   -1.2990    0.0000 C   0  0  0  0  0  0  0  0  0  0  0  0
    1.5000    0.0000    0.0000 C   0  0  0  0  0  0  0  0  0  0  0  0
    0.7500    1.2990    0.0000 C   0  0  0  0  0  0  0  0  0  0  0  0
   -0.7500    1.2990    0.0000 C   0  0  0  0  0  0  0  0  0  0  0  0
   -1.5000    2.5981    0.0000 C   0  0  0  0  0  0  0  0  0  0  0  0
   -1.5000    0.0000    0.0000 C   0  0  0  0  0  0  0  0  0  0  0  0
   -3.0000    0.0000    0.0000 C   0  0  0  0  0  0  0  0  0  0  0  0
   -3.7500    1.2990    0.0000 C   0  0  0  0  0  0  0  0  0  0  0  0
   -5.2500    1.2990    0.0000 C   0  0  0  0  0  0  0  0  0  0  0  0
   -6.0000    0.0000    0.0000 C   0  0  0  0  0  0  0  0  0  0  0  0
   -7.5000    0.0000    0.0000 C   0  0  0  0  0  0  0  0  0  0  0  0
   -8.2500   -1.2990    0.0000 O   0  0  0  0  0  0  0  0  0  0  0  0
   -8.2500    1.2990    0.0000 N   0  0  0  0  0  0  0  0  0  0  0  0
   -9.7500    1.2990    0.0000 C   0  0  0  0  0  0  0  0  0  0  0  0
  -10.5000    2.5981    0.0000 C   0  0  0  0  0  0  0  0  0  0  0  0
   -9.7500    3.8971    0.0000 C   0  0  0  0  0  0  0  0  0  0  0  0
  -10.5000    5.1962    0.0000 C   0  0  0  0  0  0  0  0  0  0  0  0
  -12.0000    5.1962    0.0000 C   0  0  0  0  0  0  0  0  0  0  0  0
  -12.7500    6.4952    0.0000 Cl  0  0  0  0  0  0  0  0  0  0  0  0
  -12.7500    3.8971    0.0000 C   0  0  0  0  0  0  0  0  0  0  0  0
  -12.0000    2.5981    0.0000 C   0  0  0  0  0  0  0  0  0  0  0  0
   -5.2500   -1.2990    0.0000 C   0  0  0  0  0  0  0  0  0  0  0  0
   -3.7500   -1.2990    0.0000 C   0  0  0  0  0  0  0  0  0  0  0  0
   -0.7500   -1.2990    0.0000 C   0  0  0  0  0  0  0  0  0  0  0  0
    0.8899   -3.9684    0.0000 O   0  0  0  0  0  0  0  0  0  0  0  0
  1  2  1  0
  2  3  2  0
  3  4  1  0
  4  5  2  0
  5  6  1  0
  6  7  2  0
  7  8  1  0
  8  9  2  0
  9 10  1  0
  9 11  1  0
 11 12  1  0
 12 13  2  0
 13 14  1  0
 14 15  2  0
 15 16  1  0
 16 17  2  0
 16 18  1  0
 18 19  1  0
 19 20  1  0
 20 21  2  0
 21 22  1  0
 22 23  2  0
 23 24  1  0
 23 25  1  0
 25 26  2  0
 15 27  1  0
 27 28  2  0
 11 29  2  0
  5 30  1  0
 30  2  1  0
 29  6  1  0
 28 12  1  0
 26 20  1  0
M  END
>  <Compound_ID>  (847) 
CHEMBL402108

>  <Molecule Name>  (847) 
GW708893X

>  <Molecular Weight>  (847) 
417.9

>  <AlogP>  (847) 
5.6

>  <Smiles>  (847) 
Cc1nnc(-c2ccc(C)c(-c3ccc(C(=O)NCc4ccc(Cl)cc4)cc3)c2)o1

>  <Standard Type>  (847) 
Inhibition

>  <Standard Relation>  (847) 
'='

>  <Standard Units>  (847) 
%

>  <Standard Value>  (847) 
2.65

>  <Assay ChEMBL ID>  (847) 
CHEMBL1962184

>  <Assay Description>  (847) 
GSK_PKIS: TRKA mean inhibition at 0.1 uM [Nanosyn]

>  <BAO Format ID>  (847) 
BAO_0000357

>  <BAO Label>  (847) 
single protein format

>  <Assay Organism>  (847) 
None

>  <Target ChEMBL ID>  (847) 
CHEMBL2815

>  <Target Name>  (847) 
Nerve growth factor receptor Trk-A

>  <Target Organism>  (847) 
Homo sapiens

>  <Target Type>  (847) 
SINGLE PROTEIN

>  <Document ChEMBL ID>  (847) 
CHEMBL1961873

>  <Source Description>  (847) 
GSK Published Kinase Inhibitor Set

>  <Document Journal>  (847) 
nan

>  <Document Year>  (847) 
nan

>  <Active>  (847) 
0.0

>  <bits>  (847) 
<rdkit.DataStructs.cDataStructs.ExplicitBitVect object at 0x00000159F7933BC0>

>  <Group>  (847) 
G2

$$$$

     RDKit          2D

 25 27  0  0  0  0  0  0  0  0999 V2000
    1.8478   -6.4639    0.0000 O   0  0  0  0  0  0  0  0  0  0  0  0
    2.0046   -4.9721    0.0000 C   0  0  0  0  0  0  0  0  0  0  0  0
    3.3037   -4.2221    0.0000 N   0  0  0  0  0  0  0  0  0  0  0  0
    2.9918   -2.7549    0.0000 C   0  0  0  0  0  0  0  0  0  0  0  0
    3.9955   -1.6402    0.0000 O   0  0  0  0  0  0  0  0  0  0  0  0
    1.5000   -2.5981    0.0000 C   0  0  0  0  0  0  0  0  0  0  0  0
    0.7500   -1.2990    0.0000 C   0  0  0  0  0  0  0  0  0  0  0  0
    1.5000    0.0000    0.0000 C   0  0  0  0  0  0  0  0  0  0  0  0
    0.7500    1.2990    0.0000 C   0  0  0  0  0  0  0  0  0  0  0  0
   -0.7500    1.2990    0.0000 C   0  0  0  0  0  0  0  0  0  0  0  0
   -1.5000    0.0000    0.0000 C   0  0  0  0  0  0  0  0  0  0  0  0
   -3.0000    0.0000    0.0000 Cl  0  0  0  0  0  0  0  0  0  0  0  0
   -0.7500   -1.2990    0.0000 C   0  0  0  0  0  0  0  0  0  0  0  0
    0.8899   -3.9684    0.0000 C   0  0  0  0  0  0  0  0  0  0  0  0
   -0.5773   -4.2803    0.0000 N   0  0  0  0  0  0  0  0  0  0  0  0
   -1.0409   -5.7068    0.0000 C   0  0  0  0  0  0  0  0  0  0  0  0
   -2.5081   -6.0187    0.0000 C   0  0  0  0  0  0  0  0  0  0  0  0
   -2.9716   -7.4453    0.0000 C   0  0  0  0  0  0  0  0  0  0  0  0
   -1.9679   -8.5600    0.0000 C   0  0  0  0  0  0  0  0  0  0  0  0
   -2.4314   -9.9866    0.0000 Cl  0  0  0  0  0  0  0  0  0  0  0  0
   -0.5007   -8.2481    0.0000 C   0  0  0  0  0  0  0  0  0  0  0  0
    0.5030   -9.3629    0.0000 C   0  0  0  0  0  0  0  0  0  0  0  0
    1.9702   -9.0510    0.0000 O   0  0  0  0  0  0  0  0  0  0  0  0
    0.0395  -10.7895    0.0000 O   0  0  0  0  0  0  0  0  0  0  0  0
   -0.0372   -6.8216    0.0000 C   0  0  0  0  0  0  0  0  0  0  0  0
  1  2  2  0
  2  3  1  0
  3  4  1  0
  4  5  2  0
  4  6  1  0
  6  7  1  0
  7  8  2  0
  8  9  1  0
  9 10  2  0
 10 11  1  0
 11 12  1  0
 11 13  2  0
  6 14  2  0
 14 15  1  0
 15 16  1  0
 16 17  2  0
 17 18  1  0
 18 19  2  0
 19 20  1  0
 19 21  1  0
 21 22  1  0
 22 23  2  0
 22 24  1  0
 21 25  2  0
 14  2  1  0
 25 16  1  0
 13  7  1  0
M  END
>  <Compound_ID>  (848) 
CHEMBL156987

>  <Molecule Name>  (848) 
nan

>  <Molecular Weight>  (848) 
377.18

>  <AlogP>  (848) 
3.17

>  <Smiles>  (848) 
O=C1NC(=O)C(c2cccc(Cl)c2)=C1Nc1ccc(Cl)c(C(=O)O)c1

>  <Standard Type>  (848) 
Inhibition

>  <Standard Relation>  (848) 
'='

>  <Standard Units>  (848) 
%

>  <Standard Value>  (848) 
-0.54

>  <Assay ChEMBL ID>  (848) 
CHEMBL1962185

>  <Assay Description>  (848) 
GSK_PKIS: TRKA mean inhibition at 1 uM [Nanosyn]

>  <BAO Format ID>  (848) 
BAO_0000357

>  <BAO Label>  (848) 
single protein format

>  <Assay Organism>  (848) 
None

>  <Target ChEMBL ID>  (848) 
CHEMBL2815

>  <Target Name>  (848) 
Nerve growth factor receptor Trk-A

>  <Target Organism>  (848) 
Homo sapiens

>  <Target Type>  (848) 
SINGLE PROTEIN

>  <Document ChEMBL ID>  (848) 
CHEMBL1961873

>  <Source Description>  (848) 
GSK Published Kinase Inhibitor Set

>  <Document Journal>  (848) 
nan

>  <Document Year>  (848) 
nan

>  <Active>  (848) 
0.0

>  <bits>  (848) 
<rdkit.DataStructs.cDataStructs.ExplicitBitVect object at 0x00000159F7932490>

>  <Group>  (848) 
G2

$$$$

     RDKit          2D

 26 29  0  0  0  0  0  0  0  0999 V2000
    4.6740   -4.8322    0.0000 N   0  0  0  0  0  0  0  0  0  0  0  0
    3.3037   -4.2221    0.0000 C   0  0  0  0  0  0  0  0  0  0  0  0
    2.9918   -2.7549    0.0000 N   0  0  0  0  0  0  0  0  0  0  0  0
    1.5000   -2.5981    0.0000 C   0  0  0  0  0  0  0  0  0  0  0  0
    0.7500   -1.2990    0.0000 C   0  0  0  0  0  0  0  0  0  0  0  0
    1.5000    0.0000    0.0000 C   0  0  0  0  0  0  0  0  0  0  0  0
    0.7500    1.2990    0.0000 C   0  0  0  0  0  0  0  0  0  0  0  0
   -0.7500    1.2990    0.0000 C   0  0  0  0  0  0  0  0  0  0  0  0
   -1.5000    0.0000    0.0000 C   0  0  0  0  0  0  0  0  0  0  0  0
   -0.7500   -1.2990    0.0000 C   0  0  0  0  0  0  0  0  0  0  0  0
   -2.9672    0.3119    0.0000 C   0  0  0  0  0  0  0  0  0  0  0  0
   -4.0819   -0.6918    0.0000 C   0  0  0  0  0  0  0  0  0  0  0  0
   -5.5085   -0.2283    0.0000 C   0  0  0  0  0  0  0  0  0  0  0  0
   -5.8204    1.2389    0.0000 C   0  0  0  0  0  0  0  0  0  0  0  0
   -7.2470    1.7024    0.0000 C   0  0  0  0  0  0  0  0  0  0  0  0
   -7.5588    3.1697    0.0000 Br  0  0  0  0  0  0  0  0  0  0  0  0
   -8.3617    0.6987    0.0000 C   0  0  0  0  0  0  0  0  0  0  0  0
   -9.7883    1.1623    0.0000 O   0  0  0  0  0  0  0  0  0  0  0  0
   -8.0498   -0.7685    0.0000 C   0  0  0  0  0  0  0  0  0  0  0  0
   -9.1645   -1.7722    0.0000 Br  0  0  0  0  0  0  0  0  0  0  0  0
   -6.6232   -1.2320    0.0000 C   0  0  0  0  0  0  0  0  0  0  0  0
   -3.1240    1.8037    0.0000 C   0  0  0  0  0  0  0  0  0  0  0  0
   -4.4231    2.5537    0.0000 O   0  0  0  0  0  0  0  0  0  0  0  0
   -1.7537    2.4138    0.0000 N   0  0  0  0  0  0  0  0  0  0  0  0
    0.8899   -3.9684    0.0000 C   0  0  0  0  0  0  0  0  0  0  0  0
    2.0046   -4.9721    0.0000 S   0  0  0  0  0  0  0  0  0  0  0  0
  1  2  1  0
  2  3  2  0
  3  4  1  0
  4  5  1  0
  5  6  2  0
  6  7  1  0
  7  8  2  0
  8  9  1  0
  9 10  2  0
  9 11  1  0
 11 12  2  3
 12 13  1  0
 13 14  2  0
 14 15  1  0
 15 16  1  0
 15 17  2  0
 17 18  1  0
 17 19  1  0
 19 20  1  0
 19 21  2  0
 11 22  1  0
 22 23  2  0
 22 24  1  0
  4 25  2  0
 25 26  1  0
 26  2  1  0
 10  5  1  0
 21 13  1  0
 24  8  1  0
M  END
>  <Compound_ID>  (849) 
CHEMBL1794053

>  <Molecule Name>  (849) 
GW407323A

>  <Molecular Weight>  (849) 
529.64

>  <AlogP>  (849) 
5.12

>  <Smiles>  (849) 
Nc1nc(-c2ccc3c(c2)C(=Cc2cc(Br)c(O)c(Br)c2)C(=O)N3)cs1

>  <Standard Type>  (849) 
Inhibition

>  <Standard Relation>  (849) 
'='

>  <Standard Units>  (849) 
%

>  <Standard Value>  (849) 
2.45

>  <Assay ChEMBL ID>  (849) 
CHEMBL1962185

>  <Assay Description>  (849) 
GSK_PKIS: TRKA mean inhibition at 1 uM [Nanosyn]

>  <BAO Format ID>  (849) 
BAO_0000357

>  <BAO Label>  (849) 
single protein format

>  <Assay Organism>  (849) 
None

>  <Target ChEMBL ID>  (849) 
CHEMBL2815

>  <Target Name>  (849) 
Nerve growth factor receptor Trk-A

>  <Target Organism>  (849) 
Homo sapiens

>  <Target Type>  (849) 
SINGLE PROTEIN

>  <Document ChEMBL ID>  (849) 
CHEMBL1961873

>  <Source Description>  (849) 
GSK Published Kinase Inhibitor Set

>  <Document Journal>  (849) 
nan

>  <Document Year>  (849) 
nan

>  <Active>  (849) 
0.0

>  <bits>  (849) 
<rdkit.DataStructs.cDataStructs.ExplicitBitVect object at 0x00000159F7931770>

>  <Group>  (849) 
G2

$$$$

     RDKit          2D

 21 24  0  0  0  0  0  0  0  0999 V2000
   -2.6401   -3.1891    0.0000 C   0  0  0  0  0  0  0  0  0  0  0  0
   -1.2135   -2.7256    0.0000 N   0  0  0  0  0  0  0  0  0  0  0  0
   -0.0000   -3.6073    0.0000 C   0  0  0  0  0  0  0  0  0  0  0  0
   -0.0000   -5.1073    0.0000 O   0  0  0  0  0  0  0  0  0  0  0  0
    1.2135   -2.7256    0.0000 C   0  0  0  0  0  0  0  0  0  0  0  0
    2.6401   -3.1891    0.0000 C   0  0  0  0  0  0  0  0  0  0  0  0
    3.8536   -2.3075    0.0000 C   0  0  0  0  0  0  0  0  0  0  0  0
    3.8536   -0.8075    0.0000 O   0  0  0  0  0  0  0  0  0  0  0  0
    5.0672   -3.1891    0.0000 N   0  0  0  0  0  0  0  0  0  0  0  0
    4.6036   -4.6157    0.0000 C   0  0  0  0  0  0  0  0  0  0  0  0
    5.3536   -5.9148    0.0000 C   0  0  0  0  0  0  0  0  0  0  0  0
    4.6036   -7.2138    0.0000 C   0  0  0  0  0  0  0  0  0  0  0  0
    3.1036   -7.2138    0.0000 C   0  0  0  0  0  0  0  0  0  0  0  0
    2.3536   -5.9148    0.0000 C   0  0  0  0  0  0  0  0  0  0  0  0
    3.1036   -4.6157    0.0000 C   0  0  0  0  0  0  0  0  0  0  0  0
    0.7500   -1.2990    0.0000 C   0  0  0  0  0  0  0  0  0  0  0  0
    1.5000    0.0000    0.0000 C   0  0  0  0  0  0  0  0  0  0  0  0
    0.7500    1.2990    0.0000 C   0  0  0  0  0  0  0  0  0  0  0  0
   -0.7500    1.2990    0.0000 C   0  0  0  0  0  0  0  0  0  0  0  0
   -1.5000    0.0000    0.0000 C   0  0  0  0  0  0  0  0  0  0  0  0
   -0.7500   -1.2990    0.0000 C   0  0  0  0  0  0  0  0  0  0  0  0
  1  2  1  0
  2  3  1  0
  3  4  2  0
  3  5  1  0
  5  6  2  0
  6  7  1  0
  7  8  2  0
  7  9  1  0
  9 10  1  0
 10 11  2  0
 11 12  1  0
 12 13  2  0
 13 14  1  0
 14 15  2  0
  5 16  1  0
 16 17  2  0
 17 18  1  0
 18 19  2  0
 19 20  1  0
 20 21  2  0
 21  2  1  0
 15  6  1  0
 21 16  1  0
 15 10  1  0
M  END
>  <Compound_ID>  (850) 
CHEMBL607535

>  <Molecule Name>  (850) 
MEISOINDIGO

>  <Molecular Weight>  (850) 
276.3

>  <AlogP>  (850) 
2.53

>  <Smiles>  (850) 
CN1C(=O)/C(=C2/C(=O)Nc3ccccc32)c2ccccc21

>  <Standard Type>  (850) 
Inhibition

>  <Standard Relation>  (850) 
'='

>  <Standard Units>  (850) 
%

>  <Standard Value>  (850) 
20.0

>  <Assay ChEMBL ID>  (850) 
CHEMBL1066106

>  <Assay Description>  (850) 
Inhibition of TRKA at 10 uM

>  <BAO Format ID>  (850) 
BAO_0000357

>  <BAO Label>  (850) 
single protein format

>  <Assay Organism>  (850) 
None

>  <Target ChEMBL ID>  (850) 
CHEMBL2815

>  <Target Name>  (850) 
Nerve growth factor receptor Trk-A

>  <Target Organism>  (850) 
Homo sapiens

>  <Target Type>  (850) 
SINGLE PROTEIN

>  <Document ChEMBL ID>  (850) 
CHEMBL1152632

>  <Source Description>  (850) 
Scientific Literature

>  <Document Journal>  (850) 
Bioorg Med Chem

>  <Document Year>  (850) 
2009.0

>  <Active>  (850) 
0.0

>  <bits>  (850) 
<rdkit.DataStructs.cDataStructs.ExplicitBitVect object at 0x00000159F79331B0>

>  <Group>  (850) 
G2

$$$$

     RDKit          2D

 33 37  0  0  0  0  0  0  0  0999 V2000
   -0.0967    5.1517    0.0000 C   0  0  0  0  0  0  0  0  0  0  0  0
   -0.4086    3.6844    0.0000 C   0  0  0  0  0  0  0  0  0  0  0  0
    0.7062    2.6807    0.0000 O   0  0  0  0  0  0  0  0  0  0  0  0
    0.3943    1.2135    0.0000 C   0  0  0  0  0  0  0  0  0  0  0  0
    1.2760    0.0000    0.0000 C   0  0  0  0  0  0  0  0  0  0  0  0
    0.3943   -1.2135    0.0000 C   0  0  0  0  0  0  0  0  0  0  0  0
    0.8578   -2.6401    0.0000 O   0  0  0  0  0  0  0  0  0  0  0  0
   -1.0323   -0.7500    0.0000 O   0  0  0  0  0  0  0  0  0  0  0  0
   -1.0323    0.7500    0.0000 C   0  0  0  0  0  0  0  0  0  0  0  0
   -2.1470    1.7537    0.0000 C   0  0  0  0  0  0  0  0  0  0  0  0
   -1.8351    3.2209    0.0000 C   0  0  0  0  0  0  0  0  0  0  0  0
   -2.9499    4.2246    0.0000 C   0  0  0  0  0  0  0  0  0  0  0  0
   -2.6380    5.6918    0.0000 O   0  0  0  0  0  0  0  0  0  0  0  0
   -4.3764    3.7611    0.0000 C   0  0  0  0  0  0  0  0  0  0  0  0
   -4.6883    2.2939    0.0000 C   0  0  0  0  0  0  0  0  0  0  0  0
   -6.1149    1.8303    0.0000 C   0  0  0  0  0  0  0  0  0  0  0  0
   -7.2296    2.8340    0.0000 C   0  0  0  0  0  0  0  0  0  0  0  0
   -6.9177    4.3013    0.0000 C   0  0  0  0  0  0  0  0  0  0  0  0
   -8.0325    5.3050    0.0000 C   0  0  0  0  0  0  0  0  0  0  0  0
   -7.7206    6.7722    0.0000 C   0  0  0  0  0  0  0  0  0  0  0  0
   -8.8353    7.7759    0.0000 C   0  0  0  0  0  0  0  0  0  0  0  0
   -8.5234    9.2431    0.0000 N   0  0  0  0  0  0  0  0  0  0  0  0
   -7.0969    9.7066    0.0000 C   0  0  0  0  0  0  0  0  0  0  0  0
   -9.6382   10.2468    0.0000 C   0  0  0  0  0  0  0  0  0  0  0  0
  -10.2619    7.3123    0.0000 C   0  0  0  0  0  0  0  0  0  0  0  0
  -11.3766    8.3160    0.0000 O   0  0  0  0  0  0  0  0  0  0  0  0
  -10.5738    5.8451    0.0000 C   0  0  0  0  0  0  0  0  0  0  0  0
  -12.0003    5.3816    0.0000 C   0  0  0  0  0  0  0  0  0  0  0  0
   -9.4590    4.8414    0.0000 O   0  0  0  0  0  0  0  0  0  0  0  0
   -5.4912    4.7648    0.0000 C   0  0  0  0  0  0  0  0  0  0  0  0
   -5.1793    6.2320    0.0000 O   0  0  0  0  0  0  0  0  0  0  0  0
   -3.5736    1.2902    0.0000 C   0  0  0  0  0  0  0  0  0  0  0  0
   -3.8855   -0.1771    0.0000 O   0  0  0  0  0  0  0  0  0  0  0  0
  2  1  1  1
  2  3  1  0
  3  4  1  0
  4  5  1  6
  5  6  1  0
  6  7  2  0
  6  8  1  0
  9  8  1  6
  9 10  1  0
 10 11  2  0
 11 12  1  0
 12 13  2  0
 12 14  1  0
 14 15  2  0
 15 16  1  0
 16 17  2  0
 17 18  1  0
 19 18  1  6
 19 20  1  0
 20 21  1  0
 21 22  1  6
 22 23  1  0
 22 24  1  0
 21 25  1  0
 25 26  1  1
 25 27  1  0
 27 28  1  6
 27 29  1  0
 18 30  2  0
 30 31  1  0
 15 32  1  0
 32 33  2  0
 11  2  1  0
 30 14  1  0
  9  4  1  0
 32 10  1  0
 29 19  1  0
M  END
>  <Compound_ID>  (851) 
CHEMBL2216825

>  <Molecule Name>  (851) 
LACTOQUINOMYCIN

>  <Molecular Weight>  (851) 
457.48

>  <AlogP>  (851) 
1.31

>  <Smiles>  (851) 
C[C@H]1O[C@@H]2CC(=O)O[C@@H]2C2=C1C(=O)c1c(ccc([C@H]3C[C@@H](N(C)C)[C@H](O)[C@@H](C)O3)c1O)C2=O

>  <Standard Type>  (851) 
Inhibition

>  <Standard Relation>  (851) 
'='

>  <Standard Units>  (851) 
%

>  <Standard Value>  (851) 
14.0

>  <Assay ChEMBL ID>  (851) 
CHEMBL1019629

>  <Assay Description>  (851) 
Inhibition of NTRK1 at 1 uM

>  <BAO Format ID>  (851) 
BAO_0000357

>  <BAO Label>  (851) 
single protein format

>  <Assay Organism>  (851) 
None

>  <Target ChEMBL ID>  (851) 
CHEMBL2815

>  <Target Name>  (851) 
Nerve growth factor receptor Trk-A

>  <Target Organism>  (851) 
Homo sapiens

>  <Target Type>  (851) 
SINGLE PROTEIN

>  <Document ChEMBL ID>  (851) 
CHEMBL1153413

>  <Source Description>  (851) 
Scientific Literature

>  <Document Journal>  (851) 
J Med Chem

>  <Document Year>  (851) 
2009.0

>  <Active>  (851) 
0.0

>  <bits>  (851) 
<rdkit.DataStructs.cDataStructs.ExplicitBitVect object at 0x00000159F7931AF0>

>  <Group>  (851) 
G2

$$$$

     RDKit          2D

 26 28  0  0  0  0  0  0  0  0999 V2000
    1.8478   -6.4639    0.0000 O   0  0  0  0  0  0  0  0  0  0  0  0
    2.0046   -4.9721    0.0000 C   0  0  0  0  0  0  0  0  0  0  0  0
    3.3037   -4.2221    0.0000 N   0  0  0  0  0  0  0  0  0  0  0  0
    2.9918   -2.7549    0.0000 C   0  0  0  0  0  0  0  0  0  0  0  0
    3.9955   -1.6402    0.0000 O   0  0  0  0  0  0  0  0  0  0  0  0
    1.5000   -2.5981    0.0000 C   0  0  0  0  0  0  0  0  0  0  0  0
    0.7500   -1.2990    0.0000 C   0  0  0  0  0  0  0  0  0  0  0  0
    1.5000    0.0000    0.0000 C   0  0  0  0  0  0  0  0  0  0  0  0
    0.7500    1.2990    0.0000 C   0  0  0  0  0  0  0  0  0  0  0  0
   -0.7500    1.2990    0.0000 C   0  0  0  0  0  0  0  0  0  0  0  0
   -1.5000    0.0000    0.0000 C   0  0  0  0  0  0  0  0  0  0  0  0
   -3.0000    0.0000    0.0000 N   0  0  0  0  0  4  0  0  0  0  0  0
   -3.7500   -1.2990    0.0000 O   0  0  0  0  0  0  0  0  0  0  0  0
   -3.7500    1.2990    0.0000 O   0  0  0  0  0  1  0  0  0  0  0  0
   -0.7500   -1.2990    0.0000 C   0  0  0  0  0  0  0  0  0  0  0  0
    0.8899   -3.9684    0.0000 C   0  0  0  0  0  0  0  0  0  0  0  0
   -0.5773   -4.2803    0.0000 N   0  0  0  0  0  0  0  0  0  0  0  0
   -1.0409   -5.7068    0.0000 C   0  0  0  0  0  0  0  0  0  0  0  0
   -2.5081   -6.0187    0.0000 C   0  0  0  0  0  0  0  0  0  0  0  0
   -2.9716   -7.4453    0.0000 C   0  0  0  0  0  0  0  0  0  0  0  0
   -4.4388   -7.7572    0.0000 Cl  0  0  0  0  0  0  0  0  0  0  0  0
   -1.9679   -8.5600    0.0000 C   0  0  0  0  0  0  0  0  0  0  0  0
   -2.4314   -9.9866    0.0000 O   0  0  0  0  0  0  0  0  0  0  0  0
   -0.5007   -8.2481    0.0000 C   0  0  0  0  0  0  0  0  0  0  0  0
    0.5030   -9.3629    0.0000 Cl  0  0  0  0  0  0  0  0  0  0  0  0
   -0.0372   -6.8216    0.0000 C   0  0  0  0  0  0  0  0  0  0  0  0
  1  2  2  0
  2  3  1  0
  3  4  1  0
  4  5  2  0
  4  6  1  0
  6  7  1  0
  7  8  2  0
  8  9  1  0
  9 10  2  0
 10 11  1  0
 11 12  1  0
 12 13  2  0
 12 14  1  0
 11 15  2  0
  6 16  2  0
 16 17  1  0
 17 18  1  0
 18 19  2  0
 19 20  1  0
 20 21  1  0
 20 22  2  0
 22 23  1  0
 22 24  1  0
 24 25  1  0
 24 26  2  0
 16  2  1  0
 26 18  1  0
 15  7  1  0
M  CHG  2  12   1  14  -1
M  END
>  <Compound_ID>  (852) 
CHEMBL352222

>  <Molecule Name>  (852) 
nan

>  <Molecular Weight>  (852) 
394.17

>  <AlogP>  (852) 
3.09

>  <Smiles>  (852) 
O=C1NC(=O)C(c2cccc([N+](=O)[O-])c2)=C1Nc1cc(Cl)c(O)c(Cl)c1

>  <Standard Type>  (852) 
Inhibition

>  <Standard Relation>  (852) 
'='

>  <Standard Units>  (852) 
%

>  <Standard Value>  (852) 
-0.82

>  <Assay ChEMBL ID>  (852) 
CHEMBL1962184

>  <Assay Description>  (852) 
GSK_PKIS: TRKA mean inhibition at 0.1 uM [Nanosyn]

>  <BAO Format ID>  (852) 
BAO_0000357

>  <BAO Label>  (852) 
single protein format

>  <Assay Organism>  (852) 
None

>  <Target ChEMBL ID>  (852) 
CHEMBL2815

>  <Target Name>  (852) 
Nerve growth factor receptor Trk-A

>  <Target Organism>  (852) 
Homo sapiens

>  <Target Type>  (852) 
SINGLE PROTEIN

>  <Document ChEMBL ID>  (852) 
CHEMBL1961873

>  <Source Description>  (852) 
GSK Published Kinase Inhibitor Set

>  <Document Journal>  (852) 
nan

>  <Document Year>  (852) 
nan

>  <Active>  (852) 
0.0

>  <bits>  (852) 
<rdkit.DataStructs.cDataStructs.ExplicitBitVect object at 0x00000159F7932E30>

>  <Group>  (852) 
G2

$$$$

     RDKit          2D

 25 28  0  0  0  0  0  0  0  0999 V2000
   -9.6388   -6.1973    0.0000 N   0  0  0  0  0  0  0  0  0  0  0  0
   -8.8888   -4.8983    0.0000 S   0  0  0  0  0  0  0  0  0  0  0  0
  -10.1878   -4.1483    0.0000 O   0  0  0  0  0  0  0  0  0  0  0  0
   -7.5897   -5.6483    0.0000 O   0  0  0  0  0  0  0  0  0  0  0  0
   -8.1388   -3.5992    0.0000 C   0  0  0  0  0  0  0  0  0  0  0  0
   -8.8888   -2.3002    0.0000 C   0  0  0  0  0  0  0  0  0  0  0  0
   -8.1388   -1.0012    0.0000 C   0  0  0  0  0  0  0  0  0  0  0  0
   -6.6388   -1.0012    0.0000 C   0  0  0  0  0  0  0  0  0  0  0  0
   -5.8888    0.2979    0.0000 N   0  0  0  0  0  0  0  0  0  0  0  0
   -4.3888    0.2979    0.0000 C   0  0  0  0  0  0  0  0  0  0  0  0
   -3.6388    1.5969    0.0000 C   0  0  0  0  0  0  0  0  0  0  0  0
   -4.2489    2.9672    0.0000 C   0  0  0  0  0  0  0  0  0  0  0  0
   -5.7161    3.2791    0.0000 O   0  0  0  0  0  0  0  0  0  0  0  0
   -3.1342    3.9709    0.0000 N   0  0  0  0  0  0  0  0  0  0  0  0
   -1.8351    3.2209    0.0000 C   0  0  0  0  0  0  0  0  0  0  0  0
   -0.4086    3.6844    0.0000 C   0  0  0  0  0  0  0  0  0  0  0  0
    0.7062    2.6807    0.0000 C   0  0  0  0  0  0  0  0  0  0  0  0
    0.3943    1.2135    0.0000 C   0  0  0  0  0  0  0  0  0  0  0  0
    1.2760    0.0000    0.0000 N   0  0  0  0  0  0  0  0  0  0  0  0
    0.3943   -1.2135    0.0000 C   0  0  0  0  0  0  0  0  0  0  0  0
   -1.0323   -0.7500    0.0000 S   0  0  0  0  0  0  0  0  0  0  0  0
   -1.0323    0.7500    0.0000 C   0  0  0  0  0  0  0  0  0  0  0  0
   -2.1470    1.7537    0.0000 C   0  0  0  0  0  0  0  0  0  0  0  0
   -5.8888   -2.3002    0.0000 C   0  0  0  0  0  0  0  0  0  0  0  0
   -6.6388   -3.5992    0.0000 C   0  0  0  0  0  0  0  0  0  0  0  0
  1  2  1  0
  2  3  2  0
  2  4  2  0
  2  5  1  0
  5  6  2  0
  6  7  1  0
  7  8  2  0
  8  9  1  0
  9 10  1  0
 10 11  2  0
 11 12  1  0
 12 13  2  0
 12 14  1  0
 14 15  1  0
 15 16  2  0
 16 17  1  0
 17 18  2  0
 18 19  1  0
 19 20  2  0
 20 21  1  0
 21 22  1  0
 22 23  2  0
  8 24  1  0
 24 25  2  0
 25  5  1  0
 23 11  1  0
 23 15  1  0
 22 18  1  0
M  END
>  <Compound_ID>  (853) 
CHEMBL271595

>  <Molecule Name>  (853) 
GW297361X

>  <Molecular Weight>  (853) 
372.43

>  <AlogP>  (853) 
2.35

>  <Smiles>  (853) 
NS(=O)(=O)c1ccc(N/C=C2\C(=O)Nc3ccc4ncsc4c32)cc1

>  <Standard Type>  (853) 
Inhibition

>  <Standard Relation>  (853) 
'='

>  <Standard Units>  (853) 
%

>  <Standard Value>  (853) 
9.04

>  <Assay ChEMBL ID>  (853) 
CHEMBL1962184

>  <Assay Description>  (853) 
GSK_PKIS: TRKA mean inhibition at 0.1 uM [Nanosyn]

>  <BAO Format ID>  (853) 
BAO_0000357

>  <BAO Label>  (853) 
single protein format

>  <Assay Organism>  (853) 
None

>  <Target ChEMBL ID>  (853) 
CHEMBL2815

>  <Target Name>  (853) 
Nerve growth factor receptor Trk-A

>  <Target Organism>  (853) 
Homo sapiens

>  <Target Type>  (853) 
SINGLE PROTEIN

>  <Document ChEMBL ID>  (853) 
CHEMBL1961873

>  <Source Description>  (853) 
GSK Published Kinase Inhibitor Set

>  <Document Journal>  (853) 
nan

>  <Document Year>  (853) 
nan

>  <Active>  (853) 
0.0

>  <bits>  (853) 
<rdkit.DataStructs.cDataStructs.ExplicitBitVect object at 0x00000159F7932EA0>

>  <Group>  (853) 
G2

$$$$

     RDKit          2D

 34 38  0  0  0  0  0  0  0  0999 V2000
    0.5271    8.0861    0.0000 N   0  0  0  0  0  0  0  0  0  0  0  0
   -0.8995    7.6226    0.0000 C   0  0  0  0  0  0  0  0  0  0  0  0
   -1.2114    6.1554    0.0000 N   0  0  0  0  0  0  0  0  0  0  0  0
   -2.6380    5.6918    0.0000 C   0  0  0  0  0  0  0  0  0  0  0  0
   -2.9499    4.2246    0.0000 N   0  0  0  0  0  0  0  0  0  0  0  0
   -1.8351    3.2209    0.0000 C   0  0  0  0  0  0  0  0  0  0  0  0
   -0.4086    3.6844    0.0000 C   0  0  0  0  0  0  0  0  0  0  0  0
    0.7062    2.6807    0.0000 C   0  0  0  0  0  0  0  0  0  0  0  0
    0.3943    1.2135    0.0000 C   0  0  0  0  0  0  0  0  0  0  0  0
    1.2760    0.0000    0.0000 N   0  0  0  0  0  0  0  0  0  0  0  0
    0.3943   -1.2135    0.0000 C   0  0  0  0  0  0  0  0  0  0  0  0
   -1.0323   -0.7500    0.0000 S   0  0  0  0  0  0  0  0  0  0  0  0
   -1.0323    0.7500    0.0000 C   0  0  0  0  0  0  0  0  0  0  0  0
   -2.1470    1.7537    0.0000 C   0  0  0  0  0  0  0  0  0  0  0  0
   -3.7527    6.6955    0.0000 C   0  0  0  0  0  0  0  0  0  0  0  0
   -3.4408    8.1628    0.0000 C   0  0  0  0  0  0  0  0  0  0  0  0
   -4.5556    9.1664    0.0000 N   0  0  0  0  0  0  0  0  0  0  0  0
   -6.0228    8.8546    0.0000 C   0  0  0  0  0  0  0  0  0  0  0  0
   -6.7728   10.1536    0.0000 C   0  0  0  0  0  0  0  0  0  0  0  0
   -5.7691   11.2683    0.0000 C   0  0  0  0  0  0  0  0  0  0  0  0
   -4.3988   10.6582    0.0000 C   0  0  0  0  0  0  0  0  0  0  0  0
   -3.0997   11.4082    0.0000 C   0  0  0  0  0  0  0  0  0  0  0  0
   -1.8007   10.6582    0.0000 O   0  0  0  0  0  0  0  0  0  0  0  0
   -3.0997   12.9082    0.0000 N   0  0  0  0  0  0  0  0  0  0  0  0
   -1.8007   13.6582    0.0000 C   0  0  0  0  0  0  0  0  0  0  0  0
   -0.5016   12.9082    0.0000 C   0  0  0  0  0  0  0  0  0  0  0  0
    0.7974   13.6582    0.0000 O   0  0  0  0  0  0  0  0  0  0  0  0
   -1.8007   15.1582    0.0000 C   0  0  0  0  0  0  0  0  0  0  0  0
   -0.5016   15.9082    0.0000 C   0  0  0  0  0  0  0  0  0  0  0  0
   -0.5016   17.4082    0.0000 C   0  0  0  0  0  0  0  0  0  0  0  0
   -1.8007   18.1582    0.0000 C   0  0  0  0  0  0  0  0  0  0  0  0
   -3.0997   17.4082    0.0000 C   0  0  0  0  0  0  0  0  0  0  0  0
   -3.0997   15.9082    0.0000 C   0  0  0  0  0  0  0  0  0  0  0  0
   -2.0143    8.6263    0.0000 N   0  0  0  0  0  0  0  0  0  0  0  0
  1  2  1  0
  2  3  2  0
  3  4  1  0
  4  5  1  0
  5  6  1  0
  6  7  2  0
  7  8  1  0
  8  9  2  0
  9 10  1  0
 10 11  2  0
 11 12  1  0
 12 13  1  0
 13 14  2  0
  4 15  2  0
 15 16  1  0
 16 17  1  0
 17 18  1  0
 18 19  1  0
 19 20  1  0
 20 21  1  0
 21 22  1  1
 22 23  2  0
 22 24  1  0
 24 25  1  0
 25 26  1  6
 26 27  1  0
 25 28  1  0
 28 29  2  0
 29 30  1  0
 30 31  2  0
 31 32  1  0
 32 33  2  0
 16 34  2  0
 34  2  1  0
 14  6  1  0
 21 17  1  0
 33 28  1  0
 13  9  1  0
M  END
>  <Compound_ID>  (854) 
CHEMBL525070

>  <Molecule Name>  (854) 
nan

>  <Molecular Weight>  (854) 
475.58

>  <AlogP>  (854) 
3.23

>  <Smiles>  (854) 
Nc1nc(Nc2ccc3ncsc3c2)cc(N2CCC[C@H]2C(=O)N[C@@H](CO)c2ccccc2)n1

>  <Standard Type>  (854) 
Inhibition

>  <Standard Relation>  (854) 
'='

>  <Standard Units>  (854) 
%

>  <Standard Value>  (854) 
9.0

>  <Assay ChEMBL ID>  (854) 
CHEMBL965679

>  <Assay Description>  (854) 
Inhibition of TrkA at 10 uM by HTRF assay relative to control

>  <BAO Format ID>  (854) 
BAO_0000357

>  <BAO Label>  (854) 
single protein format

>  <Assay Organism>  (854) 
None

>  <Target ChEMBL ID>  (854) 
CHEMBL2815

>  <Target Name>  (854) 
Nerve growth factor receptor Trk-A

>  <Target Organism>  (854) 
Homo sapiens

>  <Target Type>  (854) 
SINGLE PROTEIN

>  <Document ChEMBL ID>  (854) 
CHEMBL1150387

>  <Source Description>  (854) 
Scientific Literature

>  <Document Journal>  (854) 
J Med Chem

>  <Document Year>  (854) 
2008.0

>  <Active>  (854) 
0.0

>  <bits>  (854) 
<rdkit.DataStructs.cDataStructs.ExplicitBitVect object at 0x00000159F7932DC0>

>  <Group>  (854) 
G2

$$$$

     RDKit          2D

 19 20  0  0  0  0  0  0  0  0999 V2000
    5.2500   -1.2990    0.0000 C   0  0  0  0  0  0  0  0  0  0  0  0
    3.7500   -1.2990    0.0000 N   0  0  0  0  0  0  0  0  0  0  0  0
    3.0000    0.0000    0.0000 C   0  0  0  0  0  0  0  0  0  0  0  0
    3.7500    1.2990    0.0000 O   0  0  0  0  0  0  0  0  0  0  0  0
    1.5000    0.0000    0.0000 C   0  0  0  0  0  0  0  0  0  0  0  0
    0.7500   -1.2990    0.0000 C   0  0  0  0  0  0  0  0  0  0  0  0
   -0.7500   -1.2990    0.0000 N   0  0  0  0  0  0  0  0  0  0  0  0
   -1.5000    0.0000    0.0000 C   0  0  0  0  0  0  0  0  0  0  0  0
   -0.7500    1.2990    0.0000 C   0  0  0  0  0  0  0  0  0  0  0  0
   -1.5000    2.5981    0.0000 C   0  0  0  0  0  0  0  0  0  0  0  0
   -0.7500    3.8971    0.0000 C   0  0  0  0  0  0  0  0  0  0  0  0
   -1.5000    5.1962    0.0000 C   0  0  0  0  0  0  0  0  0  0  0  0
   -0.7500    6.4952    0.0000 C   0  0  0  0  0  0  0  0  0  0  0  0
   -1.5000    7.7942    0.0000 C   0  0  0  0  0  0  0  0  0  0  0  0
   -3.0000    7.7942    0.0000 C   0  0  0  0  0  0  0  0  0  0  0  0
   -3.7500    6.4952    0.0000 C   0  0  0  0  0  0  0  0  0  0  0  0
   -3.0000    5.1962    0.0000 C   0  0  0  0  0  0  0  0  0  0  0  0
   -3.7500    3.8971    0.0000 C   0  0  0  0  0  0  0  0  0  0  0  0
    0.7500    1.2990    0.0000 C   0  0  0  0  0  0  0  0  0  0  0  0
  1  2  1  0
  2  3  1  0
  3  4  2  0
  3  5  1  0
  5  6  2  0
  6  7  1  0
  7  8  2  0
  8  9  1  0
  9 10  1  0
 10 11  2  0
 11 12  1  0
 12 13  2  0
 13 14  1  0
 14 15  2  0
 15 16  1  0
 16 17  2  0
 17 18  1  0
  9 19  2  0
 19  5  1  0
 17 12  1  0
M  END
>  <Compound_ID>  (855) 
CHEMBL218969

>  <Molecule Name>  (855) 
GW445015X

>  <Molecular Weight>  (855) 
252.32

>  <AlogP>  (855) 
2.92

>  <Smiles>  (855) 
CNC(=O)c1cncc(/C=C/c2ccccc2C)c1

>  <Standard Type>  (855) 
Inhibition

>  <Standard Relation>  (855) 
'='

>  <Standard Units>  (855) 
%

>  <Standard Value>  (855) 
1.73

>  <Assay ChEMBL ID>  (855) 
CHEMBL1962185

>  <Assay Description>  (855) 
GSK_PKIS: TRKA mean inhibition at 1 uM [Nanosyn]

>  <BAO Format ID>  (855) 
BAO_0000357

>  <BAO Label>  (855) 
single protein format

>  <Assay Organism>  (855) 
None

>  <Target ChEMBL ID>  (855) 
CHEMBL2815

>  <Target Name>  (855) 
Nerve growth factor receptor Trk-A

>  <Target Organism>  (855) 
Homo sapiens

>  <Target Type>  (855) 
SINGLE PROTEIN

>  <Document ChEMBL ID>  (855) 
CHEMBL1961873

>  <Source Description>  (855) 
GSK Published Kinase Inhibitor Set

>  <Document Journal>  (855) 
nan

>  <Document Year>  (855) 
nan

>  <Active>  (855) 
0.0

>  <bits>  (855) 
<rdkit.DataStructs.cDataStructs.ExplicitBitVect object at 0x00000159F7930820>

>  <Group>  (855) 
G2

$$$$

     RDKit          2D

 17 19  0  0  0  0  0  0  0  0999 V2000
   -3.7548   -2.1855    0.0000 C   0  0  0  0  0  0  0  0  0  0  0  0
   -2.6401   -3.1891    0.0000 C   0  0  0  0  0  0  0  0  0  0  0  0
   -1.2135   -2.7256    0.0000 N   0  0  0  0  0  0  0  0  0  0  0  0
   -0.0000   -3.6073    0.0000 C   0  0  0  0  0  0  0  0  0  0  0  0
   -0.0000   -5.1073    0.0000 C   0  0  0  0  0  0  0  0  0  0  0  0
    1.2135   -5.9890    0.0000 N   0  0  0  0  0  0  0  0  0  0  0  0
    0.7500   -7.4156    0.0000 O   0  0  0  0  0  0  0  0  0  0  0  0
   -0.7500   -7.4156    0.0000 N   0  0  0  0  0  0  0  0  0  0  0  0
   -1.2135   -5.9890    0.0000 C   0  0  0  0  0  0  0  0  0  0  0  0
   -2.6401   -5.5255    0.0000 N   0  0  0  0  0  0  0  0  0  0  0  0
    1.2135   -2.7256    0.0000 N   0  0  0  0  0  0  0  0  0  0  0  0
    0.7500   -1.2990    0.0000 C   0  0  0  0  0  0  0  0  0  0  0  0
    1.5000    0.0000    0.0000 C   0  0  0  0  0  0  0  0  0  0  0  0
    0.7500    1.2990    0.0000 C   0  0  0  0  0  0  0  0  0  0  0  0
   -0.7500    1.2990    0.0000 N   0  0  0  0  0  0  0  0  0  0  0  0
   -1.5000    0.0000    0.0000 C   0  0  0  0  0  0  0  0  0  0  0  0
   -0.7500   -1.2990    0.0000 C   0  0  0  0  0  0  0  0  0  0  0  0
  1  2  1  0
  2  3  1  0
  3  4  1  0
  4  5  1  0
  5  6  2  0
  6  7  1  0
  7  8  1  0
  8  9  2  0
  9 10  1  0
  4 11  2  0
 11 12  1  0
 12 13  2  0
 13 14  1  0
 14 15  2  0
 15 16  1  0
 16 17  2  0
 17  3  1  0
  9  5  1  0
 17 12  1  0
M  END
>  <Compound_ID>  (856) 
CHEMBL185710

>  <Molecule Name>  (856) 
nan

>  <Molecular Weight>  (856) 
230.23

>  <AlogP>  (856) 
1.08

>  <Smiles>  (856) 
CCn1c(-c2nonc2N)nc2ccncc21

>  <Standard Type>  (856) 
Inhibition

>  <Standard Relation>  (856) 
'='

>  <Standard Units>  (856) 
%

>  <Standard Value>  (856) 
-0.79

>  <Assay ChEMBL ID>  (856) 
CHEMBL1962185

>  <Assay Description>  (856) 
GSK_PKIS: TRKA mean inhibition at 1 uM [Nanosyn]

>  <BAO Format ID>  (856) 
BAO_0000357

>  <BAO Label>  (856) 
single protein format

>  <Assay Organism>  (856) 
None

>  <Target ChEMBL ID>  (856) 
CHEMBL2815

>  <Target Name>  (856) 
Nerve growth factor receptor Trk-A

>  <Target Organism>  (856) 
Homo sapiens

>  <Target Type>  (856) 
SINGLE PROTEIN

>  <Document ChEMBL ID>  (856) 
CHEMBL1961873

>  <Source Description>  (856) 
GSK Published Kinase Inhibitor Set

>  <Document Journal>  (856) 
nan

>  <Document Year>  (856) 
nan

>  <Active>  (856) 
0.0

>  <bits>  (856) 
<rdkit.DataStructs.cDataStructs.ExplicitBitVect object at 0x00000159F7932AB0>

>  <Group>  (856) 
G2

$$$$

     RDKit          2D

 29 32  0  0  0  0  0  0  0  0999 V2000
    3.0000    0.0000    0.0000 C   0  0  0  0  0  0  0  0  0  0  0  0
    1.5000    0.0000    0.0000 C   0  0  0  0  0  0  0  0  0  0  0  0
    0.7500   -1.2990    0.0000 C   0  0  0  0  0  0  0  0  0  0  0  0
   -0.7500   -1.2990    0.0000 C   0  0  0  0  0  0  0  0  0  0  0  0
   -1.5000    0.0000    0.0000 C   0  0  0  0  0  0  0  0  0  0  0  0
   -0.7500    1.2990    0.0000 C   0  0  0  0  0  0  0  0  0  0  0  0
   -1.5000    2.5981    0.0000 C   0  0  0  0  0  0  0  0  0  0  0  0
   -0.7500    3.8971    0.0000 N   0  0  0  0  0  0  0  0  0  0  0  0
    0.7500    3.8971    0.0000 C   0  0  0  0  0  0  0  0  0  0  0  0
    1.5000    5.1962    0.0000 C   0  0  0  0  0  0  0  0  0  0  0  0
    0.7500    6.4952    0.0000 N   0  0  0  0  0  0  0  0  0  0  0  0
    1.5000    7.7942    0.0000 C   0  0  0  0  0  0  0  0  0  0  0  0
    3.0000    7.7942    0.0000 C   0  0  0  0  0  0  0  0  0  0  0  0
    3.7500    9.0933    0.0000 C   0  0  0  0  0  0  0  0  0  0  0  0
    5.2500    9.0933    0.0000 N   0  0  0  0  0  0  0  0  0  0  0  0
    6.0000    7.7942    0.0000 C   0  0  0  0  0  0  0  0  0  0  0  0
    6.0000   10.3923    0.0000 C   0  0  0  0  0  0  0  0  0  0  0  0
    7.5000   10.3923    0.0000 C   0  0  0  0  0  0  0  0  0  0  0  0
    8.2500   11.6913    0.0000 C   0  0  0  0  0  0  0  0  0  0  0  0
    7.5000   12.9904    0.0000 C   0  0  0  0  0  0  0  0  0  0  0  0
    6.0000   12.9904    0.0000 C   0  0  0  0  0  0  0  0  0  0  0  0
    5.2500   14.2894    0.0000 C   0  0  0  0  0  0  0  0  0  0  0  0
    5.2500   11.6913    0.0000 C   0  0  0  0  0  0  0  0  0  0  0  0
    3.0000   10.3923    0.0000 N   0  0  0  0  0  0  0  0  0  0  0  0
    1.5000   10.3923    0.0000 C   0  0  0  0  0  0  0  0  0  0  0  0
    0.7500    9.0933    0.0000 N   0  0  0  0  0  0  0  0  0  0  0  0
   -0.7500    6.4952    0.0000 C   0  0  0  0  0  0  0  0  0  0  0  0
   -1.5000    5.1962    0.0000 C   0  0  0  0  0  0  0  0  0  0  0  0
    0.7500    1.2990    0.0000 C   0  0  0  0  0  0  0  0  0  0  0  0
  1  2  1  0
  2  3  2  0
  3  4  1  0
  4  5  2  0
  5  6  1  0
  6  7  1  0
  7  8  1  0
  8  9  1  0
  9 10  1  0
 10 11  1  0
 11 12  1  0
 12 13  2  0
 13 14  1  0
 14 15  1  0
 15 16  1  0
 15 17  1  0
 17 18  2  0
 18 19  1  0
 19 20  2  0
 20 21  1  0
 21 22  1  0
 21 23  2  0
 14 24  2  0
 24 25  1  0
 25 26  2  0
 11 27  1  0
 27 28  1  0
  6 29  2  0
 29  2  1  0
 28  8  1  0
 26 12  1  0
 23 17  1  0
M  END
>  <Compound_ID>  (857) 
CHEMBL446087

>  <Molecule Name>  (857) 
nan

>  <Molecular Weight>  (857) 
387.53

>  <AlogP>  (857) 
4.18

>  <Smiles>  (857) 
Cc1cccc(CN2CCN(c3cc(N(C)c4cccc(C)c4)ncn3)CC2)c1

>  <Standard Type>  (857) 
Inhibition

>  <Standard Relation>  (857) 
'='

>  <Standard Units>  (857) 
%

>  <Standard Value>  (857) 
4.0

>  <Assay ChEMBL ID>  (857) 
CHEMBL965679

>  <Assay Description>  (857) 
Inhibition of TrkA at 10 uM by HTRF assay relative to control

>  <BAO Format ID>  (857) 
BAO_0000357

>  <BAO Label>  (857) 
single protein format

>  <Assay Organism>  (857) 
None

>  <Target ChEMBL ID>  (857) 
CHEMBL2815

>  <Target Name>  (857) 
Nerve growth factor receptor Trk-A

>  <Target Organism>  (857) 
Homo sapiens

>  <Target Type>  (857) 
SINGLE PROTEIN

>  <Document ChEMBL ID>  (857) 
CHEMBL1150387

>  <Source Description>  (857) 
Scientific Literature

>  <Document Journal>  (857) 
J Med Chem

>  <Document Year>  (857) 
2008.0

>  <Active>  (857) 
0.0

>  <bits>  (857) 
<rdkit.DataStructs.cDataStructs.ExplicitBitVect object at 0x00000159F79307B0>

>  <Group>  (857) 
G2

$$$$

     RDKit          2D

 31 34  0  0  0  0  0  0  0  0999 V2000
    5.3228   -7.2195    0.0000 C   0  0  0  0  0  0  0  0  0  0  0  0
    6.0728   -5.9204    0.0000 O   0  0  0  0  0  0  0  0  0  0  0  0
    5.3228   -4.6214    0.0000 C   0  0  0  0  0  0  0  0  0  0  0  0
    6.0728   -3.3223    0.0000 C   0  0  0  0  0  0  0  0  0  0  0  0
    7.5646   -3.1655    0.0000 C   0  0  0  0  0  0  0  0  0  0  0  0
    7.8765   -1.6983    0.0000 C   0  0  0  0  0  0  0  0  0  0  0  0
    6.5774   -0.9483    0.0000 C   0  0  0  0  0  0  0  0  0  0  0  0
    5.4627   -1.9520    0.0000 N   0  0  0  0  0  0  0  0  0  0  0  0
    3.9955   -1.6402    0.0000 C   0  0  0  0  0  0  0  0  0  0  0  0
    3.5320   -0.2136    0.0000 O   0  0  0  0  0  0  0  0  0  0  0  0
    2.9918   -2.7549    0.0000 C   0  0  0  0  0  0  0  0  0  0  0  0
    3.3037   -4.2221    0.0000 C   0  0  0  0  0  0  0  0  0  0  0  0
    2.0046   -4.9721    0.0000 C   0  0  0  0  0  0  0  0  0  0  0  0
    0.8899   -3.9684    0.0000 C   0  0  0  0  0  0  0  0  0  0  0  0
    1.5000   -2.5981    0.0000 N   0  0  0  0  0  0  0  0  0  0  0  0
    0.7500   -1.2990    0.0000 C   0  0  0  0  0  0  0  0  0  0  0  0
    1.5000    0.0000    0.0000 C   0  0  0  0  0  0  0  0  0  0  0  0
    0.7500    1.2990    0.0000 C   0  0  0  0  0  0  0  0  0  0  0  0
    1.5000    2.5981    0.0000 N   0  0  0  0  0  0  0  0  0  0  0  0
    3.0000    2.5981    0.0000 C   0  0  0  0  0  0  0  0  0  0  0  0
    3.7500    1.2990    0.0000 C   0  0  0  0  0  0  0  0  0  0  0  0
    5.2500    1.2990    0.0000 C   0  0  0  0  0  0  0  0  0  0  0  0
    6.0000    2.5981    0.0000 C   0  0  0  0  0  0  0  0  0  0  0  0
    5.2500    3.8971    0.0000 C   0  0  0  0  0  0  0  0  0  0  0  0
    6.0000    5.1962    0.0000 O   0  0  0  0  0  0  0  0  0  0  0  0
    7.5000    5.1962    0.0000 C   0  0  0  0  0  0  0  0  0  0  0  0
    3.7500    3.8971    0.0000 C   0  0  0  0  0  0  0  0  0  0  0  0
   -0.7500    1.2990    0.0000 N   0  0  0  0  0  0  0  0  0  0  0  0
   -1.5000    0.0000    0.0000 C   0  0  0  0  0  0  0  0  0  0  0  0
   -3.0000    0.0000    0.0000 N   0  0  0  0  0  0  0  0  0  0  0  0
   -0.7500   -1.2990    0.0000 N   0  0  0  0  0  0  0  0  0  0  0  0
  1  2  1  0
  2  3  1  0
  4  3  1  1
  4  5  1  0
  5  6  1  0
  6  7  1  0
  7  8  1  0
  8  9  1  0
  9 10  2  0
 11  9  1  6
 11 12  1  0
 12 13  1  0
 13 14  1  0
 14 15  1  0
 15 16  1  0
 16 17  2  0
 17 18  1  0
 18 19  1  0
 19 20  1  0
 20 21  2  0
 21 22  1  0
 22 23  2  0
 23 24  1  0
 24 25  1  0
 25 26  1  0
 24 27  2  0
 18 28  2  0
 28 29  1  0
 29 30  1  0
 29 31  2  0
  8  4  1  0
 15 11  1  0
 31 16  1  0
 27 20  1  0
M  END
>  <Compound_ID>  (858) 
CHEMBL519962

>  <Molecule Name>  (858) 
nan

>  <Molecular Weight>  (858) 
426.52

>  <AlogP>  (858) 
2.42

>  <Smiles>  (858) 
COC[C@@H]1CCCN1C(=O)[C@@H]1CCCN1c1cc(Nc2cccc(OC)c2)nc(N)n1

>  <Standard Type>  (858) 
Inhibition

>  <Standard Relation>  (858) 
'='

>  <Standard Units>  (858) 
%

>  <Standard Value>  (858) 
9.0

>  <Assay ChEMBL ID>  (858) 
CHEMBL965679

>  <Assay Description>  (858) 
Inhibition of TrkA at 10 uM by HTRF assay relative to control

>  <BAO Format ID>  (858) 
BAO_0000357

>  <BAO Label>  (858) 
single protein format

>  <Assay Organism>  (858) 
None

>  <Target ChEMBL ID>  (858) 
CHEMBL2815

>  <Target Name>  (858) 
Nerve growth factor receptor Trk-A

>  <Target Organism>  (858) 
Homo sapiens

>  <Target Type>  (858) 
SINGLE PROTEIN

>  <Document ChEMBL ID>  (858) 
CHEMBL1150387

>  <Source Description>  (858) 
Scientific Literature

>  <Document Journal>  (858) 
J Med Chem

>  <Document Year>  (858) 
2008.0

>  <Active>  (858) 
0.0

>  <bits>  (858) 
<rdkit.DataStructs.cDataStructs.ExplicitBitVect object at 0x00000159F7931CB0>

>  <Group>  (858) 
G2

$$$$

     RDKit          2D

 31 35  0  0  0  0  0  0  0  0999 V2000
    3.0000   -5.1962    0.0000 C   0  0  0  0  0  0  0  0  0  0  0  0
    1.5000   -5.1962    0.0000 O   0  0  0  0  0  0  0  0  0  0  0  0
    0.7500   -3.8971    0.0000 C   0  0  0  0  0  0  0  0  0  0  0  0
    1.5000   -2.5981    0.0000 C   0  0  0  0  0  0  0  0  0  0  0  0
    0.7500   -1.2990    0.0000 C   0  0  0  0  0  0  0  0  0  0  0  0
    1.5000    0.0000    0.0000 N   0  0  0  0  0  0  0  0  0  0  0  0
    0.7500    1.2990    0.0000 C   0  0  0  0  0  0  0  0  0  0  0  0
   -0.7500    1.2990    0.0000 N   0  0  0  0  0  0  0  0  0  0  0  0
   -1.5000    0.0000    0.0000 C   0  0  0  0  0  0  0  0  0  0  0  0
   -3.0000    0.0000    0.0000 N   0  0  0  0  0  0  0  0  0  0  0  0
   -3.7500    1.2990    0.0000 C   0  0  0  0  0  0  0  0  0  0  0  0
   -3.0000    2.5981    0.0000 C   0  0  0  0  0  0  0  0  0  0  0  0
   -3.7500    3.8971    0.0000 C   0  0  0  0  0  0  0  0  0  0  0  0
   -5.2500    3.8971    0.0000 C   0  0  0  0  0  0  0  0  0  0  0  0
   -6.0000    2.5981    0.0000 C   0  0  0  0  0  0  0  0  0  0  0  0
   -7.4672    2.9099    0.0000 C   0  0  0  0  0  0  0  0  0  0  0  0
   -7.6240    4.4017    0.0000 N   0  0  0  0  0  0  0  0  0  0  0  0
   -6.2537    5.0118    0.0000 N   0  0  0  0  0  0  0  0  0  0  0  0
   -5.9418    6.4791    0.0000 C   0  0  0  0  0  0  0  0  0  0  0  0
   -7.0565    7.4827    0.0000 C   0  0  0  0  0  0  0  0  0  0  0  0
   -6.7447    8.9500    0.0000 C   0  0  0  0  0  0  0  0  0  0  0  0
   -7.8594    9.9537    0.0000 C   0  0  0  0  0  0  0  0  0  0  0  0
   -9.2860    9.4901    0.0000 C   0  0  0  0  0  0  0  0  0  0  0  0
   -9.5978    8.0229    0.0000 C   0  0  0  0  0  0  0  0  0  0  0  0
   -8.4831    7.0192    0.0000 C   0  0  0  0  0  0  0  0  0  0  0  0
   -5.2500    1.2990    0.0000 C   0  0  0  0  0  0  0  0  0  0  0  0
   -0.7500   -1.2990    0.0000 C   0  0  0  0  0  0  0  0  0  0  0  0
   -1.5000   -2.5981    0.0000 C   0  0  0  0  0  0  0  0  0  0  0  0
   -0.7500   -3.8971    0.0000 C   0  0  0  0  0  0  0  0  0  0  0  0
   -1.5000   -5.1962    0.0000 O   0  0  0  0  0  0  0  0  0  0  0  0
   -3.0000   -5.1962    0.0000 C   0  0  0  0  0  0  0  0  0  0  0  0
  1  2  1  0
  2  3  1  0
  3  4  2  0
  4  5  1  0
  5  6  2  0
  6  7  1  0
  7  8  2  0
  8  9  1  0
  9 10  1  0
 10 11  1  0
 11 12  2  0
 12 13  1  0
 13 14  2  0
 14 15  1  0
 15 16  1  0
 16 17  2  0
 17 18  1  0
 18 19  1  0
 19 20  1  0
 20 21  2  0
 21 22  1  0
 22 23  2  0
 23 24  1  0
 24 25  2  0
 15 26  2  0
  9 27  2  0
 27 28  1  0
 28 29  2  0
 29 30  1  0
 30 31  1  0
 29  3  1  0
 27  5  1  0
 26 11  1  0
 18 14  1  0
 25 20  1  0
M  END
>  <Compound_ID>  (859) 
CHEMBL1909380

>  <Molecule Name>  (859) 
GW282449A

>  <Molecular Weight>  (859) 
447.93

>  <AlogP>  (859) 
4.79

>  <Smiles>  (859) 
COc1cc2ncnc(Nc3ccc4c(cnn4Cc4ccccc4)c3)c2cc1OC

>  <Standard Type>  (859) 
Inhibition

>  <Standard Relation>  (859) 
'='

>  <Standard Units>  (859) 
%

>  <Standard Value>  (859) 
0.45

>  <Assay ChEMBL ID>  (859) 
CHEMBL1962184

>  <Assay Description>  (859) 
GSK_PKIS: TRKA mean inhibition at 0.1 uM [Nanosyn]

>  <BAO Format ID>  (859) 
BAO_0000357

>  <BAO Label>  (859) 
single protein format

>  <Assay Organism>  (859) 
None

>  <Target ChEMBL ID>  (859) 
CHEMBL2815

>  <Target Name>  (859) 
Nerve growth factor receptor Trk-A

>  <Target Organism>  (859) 
Homo sapiens

>  <Target Type>  (859) 
SINGLE PROTEIN

>  <Document ChEMBL ID>  (859) 
CHEMBL1961873

>  <Source Description>  (859) 
GSK Published Kinase Inhibitor Set

>  <Document Journal>  (859) 
nan

>  <Document Year>  (859) 
nan

>  <Active>  (859) 
0.0

>  <bits>  (859) 
<rdkit.DataStructs.cDataStructs.ExplicitBitVect object at 0x00000159F7933140>

>  <Group>  (859) 
G2

$$$$

     RDKit          2D

 29 33  0  0  0  0  0  0  0  0999 V2000
   -8.3464   -5.0433    0.0000 C   0  0  0  0  0  0  0  0  0  0  0  0
   -6.9199   -4.5797    0.0000 S   0  0  0  0  0  0  0  0  0  0  0  0
   -6.4563   -6.0063    0.0000 O   0  0  0  0  0  0  0  0  0  0  0  0
   -7.3834   -3.1531    0.0000 O   0  0  0  0  0  0  0  0  0  0  0  0
   -5.4933   -4.1162    0.0000 C   0  0  0  0  0  0  0  0  0  0  0  0
   -5.1814   -2.6490    0.0000 C   0  0  0  0  0  0  0  0  0  0  0  0
   -3.7548   -2.1855    0.0000 C   0  0  0  0  0  0  0  0  0  0  0  0
   -2.6401   -3.1891    0.0000 C   0  0  0  0  0  0  0  0  0  0  0  0
   -1.2135   -2.7256    0.0000 N   0  0  0  0  0  0  0  0  0  0  0  0
   -0.0000   -3.6073    0.0000 N   0  0  0  0  0  0  0  0  0  0  0  0
    1.2135   -2.7256    0.0000 C   0  0  0  0  0  0  0  0  0  0  0  0
    2.6401   -3.1891    0.0000 C   0  0  0  0  0  0  0  0  0  0  0  0
    3.7548   -2.1855    0.0000 C   0  0  0  0  0  0  0  0  0  0  0  0
    5.1814   -2.6490    0.0000 N   0  0  0  0  0  0  0  0  0  0  0  0
    5.4933   -4.1162    0.0000 C   0  0  0  0  0  0  0  0  0  0  0  0
    6.7923   -4.8662    0.0000 N   0  0  0  0  0  0  0  0  0  0  0  0
    6.4805   -6.3334    0.0000 C   0  0  0  0  0  0  0  0  0  0  0  0
    4.9887   -6.4902    0.0000 C   0  0  0  0  0  0  0  0  0  0  0  0
    4.3786   -5.1199    0.0000 C   0  0  0  0  0  0  0  0  0  0  0  0
    2.9520   -4.6564    0.0000 C   0  0  0  0  0  0  0  0  0  0  0  0
    0.7500   -1.2990    0.0000 C   0  0  0  0  0  0  0  0  0  0  0  0
    1.5000    0.0000    0.0000 C   0  0  0  0  0  0  0  0  0  0  0  0
    3.0000    0.0000    0.0000 N   0  0  0  0  0  0  0  0  0  0  0  0
    0.7500    1.2990    0.0000 N   0  0  0  0  0  0  0  0  0  0  0  0
   -0.7500    1.2990    0.0000 C   0  0  0  0  0  0  0  0  0  0  0  0
   -1.5000    0.0000    0.0000 N   0  0  0  0  0  0  0  0  0  0  0  0
   -0.7500   -1.2990    0.0000 C   0  0  0  0  0  0  0  0  0  0  0  0
   -2.9520   -4.6564    0.0000 C   0  0  0  0  0  0  0  0  0  0  0  0
   -4.3786   -5.1199    0.0000 C   0  0  0  0  0  0  0  0  0  0  0  0
  1  2  1  0
  2  3  2  0
  2  4  2  0
  2  5  1  0
  5  6  2  0
  6  7  1  0
  7  8  2  0
  8  9  1  0
  9 10  1  0
 10 11  2  0
 11 12  1  0
 12 13  2  0
 13 14  1  0
 14 15  2  0
 15 16  1  0
 16 17  1  0
 17 18  2  0
 18 19  1  0
 19 20  2  0
 11 21  1  0
 21 22  2  0
 22 23  1  0
 22 24  1  0
 24 25  2  0
 25 26  1  0
 26 27  2  0
  8 28  1  0
 28 29  2  0
 29  5  1  0
 27  9  1  0
 20 12  1  0
 27 21  1  0
 19 15  1  0
M  END
>  <Compound_ID>  (860) 
CHEMBL4207014

>  <Molecule Name>  (860) 
nan

>  <Molecular Weight>  (860) 
405.44

>  <AlogP>  (860) 
2.34

>  <Smiles>  (860) 
CS(=O)(=O)c1ccc(-n2nc(-c3cnc4[nH]ccc4c3)c3c(N)ncnc32)cc1

>  <Standard Type>  (860) 
Inhibition

>  <Standard Relation>  (860) 
'='

>  <Standard Units>  (860) 
%

>  <Standard Value>  (860) 
2.0

>  <Assay ChEMBL ID>  (860) 
CHEMBL4191216

>  <Assay Description>  (860) 
Inhibition of recombinant human TrkA (440 to end residues) at 1 uM using KKKSPGEYVNIEFG as substrate after 40 mins in presence of [gamma-33P]ATP by scintillation counting method

>  <BAO Format ID>  (860) 
BAO_0000357

>  <BAO Label>  (860) 
single protein format

>  <Assay Organism>  (860) 
Homo sapiens

>  <Target ChEMBL ID>  (860) 
CHEMBL2815

>  <Target Name>  (860) 
Nerve growth factor receptor Trk-A

>  <Target Organism>  (860) 
Homo sapiens

>  <Target Type>  (860) 
SINGLE PROTEIN

>  <Document ChEMBL ID>  (860) 
CHEMBL4190187

>  <Source Description>  (860) 
Scientific Literature

>  <Document Journal>  (860) 
Bioorg Med Chem Lett

>  <Document Year>  (860) 
2017.0

>  <Active>  (860) 
0.0

>  <bits>  (860) 
<rdkit.DataStructs.cDataStructs.ExplicitBitVect object at 0x00000159F79335A0>

>  <Group>  (860) 
G2

$$$$

     RDKit          2D

 23 25  0  0  0  0  0  0  0  0999 V2000
   -3.7548   -2.1855    0.0000 C   0  0  0  0  0  0  0  0  0  0  0  0
   -2.6401   -3.1891    0.0000 C   0  0  0  0  0  0  0  0  0  0  0  0
   -2.9520   -4.6564    0.0000 N   0  0  0  0  0  0  0  0  0  0  0  0
   -4.3786   -5.1199    0.0000 C   0  0  0  0  0  0  0  0  0  0  0  0
   -5.4933   -4.1162    0.0000 C   0  0  0  0  0  0  0  0  0  0  0  0
   -6.9199   -4.5797    0.0000 C   0  0  0  0  0  0  0  0  0  0  0  0
   -7.2317   -6.0469    0.0000 C   0  0  0  0  0  0  0  0  0  0  0  0
   -8.6583   -6.5105    0.0000 S   0  0  0  0  0  0  0  0  0  0  0  0
  -10.0849   -6.9740    0.0000 N   0  0  0  0  0  0  0  0  0  0  0  0
   -9.1218   -5.0839    0.0000 O   0  0  0  0  0  0  0  0  0  0  0  0
   -8.1948   -7.9371    0.0000 O   0  0  0  0  0  0  0  0  0  0  0  0
   -6.1170   -7.0506    0.0000 C   0  0  0  0  0  0  0  0  0  0  0  0
   -4.6904   -6.5871    0.0000 C   0  0  0  0  0  0  0  0  0  0  0  0
   -1.2135   -2.7256    0.0000 C   0  0  0  0  0  0  0  0  0  0  0  0
   -0.0000   -3.6073    0.0000 C   0  0  0  0  0  0  0  0  0  0  0  0
    0.0000   -5.1073    0.0000 O   0  0  0  0  0  0  0  0  0  0  0  0
    1.2135   -2.7256    0.0000 N   0  0  0  0  0  0  0  0  0  0  0  0
    0.7500   -1.2990    0.0000 C   0  0  0  0  0  0  0  0  0  0  0  0
    1.5000    0.0000    0.0000 C   0  0  0  0  0  0  0  0  0  0  0  0
    0.7500    1.2990    0.0000 C   0  0  0  0  0  0  0  0  0  0  0  0
   -0.7500    1.2990    0.0000 C   0  0  0  0  0  0  0  0  0  0  0  0
   -1.5000    0.0000    0.0000 C   0  0  0  0  0  0  0  0  0  0  0  0
   -0.7500   -1.2990    0.0000 C   0  0  0  0  0  0  0  0  0  0  0  0
  1  2  1  0
  2  3  1  0
  3  4  1  0
  4  5  2  0
  5  6  1  0
  6  7  2  0
  7  8  1  0
  8  9  1  0
  8 10  2  0
  8 11  2  0
  7 12  1  0
 12 13  2  0
  2 14  2  0
 14 15  1  0
 15 16  2  0
 15 17  1  0
 17 18  1  0
 18 19  2  0
 19 20  1  0
 20 21  2  0
 21 22  1  0
 22 23  2  0
 13  4  1  0
 23 14  1  0
 23 18  1  0
M  END
>  <Compound_ID>  (861) 
CHEMBL405042

>  <Molecule Name>  (861) 
GW335962X

>  <Molecular Weight>  (861) 
329.38

>  <AlogP>  (861) 
2.13

>  <Smiles>  (861) 
C/C(Nc1ccc(S(N)(=O)=O)cc1)=C1/C(=O)Nc2ccccc21

>  <Standard Type>  (861) 
Inhibition

>  <Standard Relation>  (861) 
'='

>  <Standard Units>  (861) 
%

>  <Standard Value>  (861) 
4.48

>  <Assay ChEMBL ID>  (861) 
CHEMBL1962184

>  <Assay Description>  (861) 
GSK_PKIS: TRKA mean inhibition at 0.1 uM [Nanosyn]

>  <BAO Format ID>  (861) 
BAO_0000357

>  <BAO Label>  (861) 
single protein format

>  <Assay Organism>  (861) 
None

>  <Target ChEMBL ID>  (861) 
CHEMBL2815

>  <Target Name>  (861) 
Nerve growth factor receptor Trk-A

>  <Target Organism>  (861) 
Homo sapiens

>  <Target Type>  (861) 
SINGLE PROTEIN

>  <Document ChEMBL ID>  (861) 
CHEMBL1961873

>  <Source Description>  (861) 
GSK Published Kinase Inhibitor Set

>  <Document Journal>  (861) 
nan

>  <Document Year>  (861) 
nan

>  <Active>  (861) 
0.0

>  <bits>  (861) 
<rdkit.DataStructs.cDataStructs.ExplicitBitVect object at 0x00000159F7930A50>

>  <Group>  (861) 
G2

$$$$

     RDKit          2D

 34 38  0  0  0  0  0  0  0  0999 V2000
    0.5271    8.0861    0.0000 N   0  0  0  0  0  0  0  0  0  0  0  0
   -0.8995    7.6226    0.0000 C   0  0  0  0  0  0  0  0  0  0  0  0
   -1.2114    6.1554    0.0000 N   0  0  0  0  0  0  0  0  0  0  0  0
   -2.6380    5.6918    0.0000 C   0  0  0  0  0  0  0  0  0  0  0  0
   -2.9499    4.2246    0.0000 N   0  0  0  0  0  0  0  0  0  0  0  0
   -1.8351    3.2209    0.0000 C   0  0  0  0  0  0  0  0  0  0  0  0
   -0.4086    3.6844    0.0000 C   0  0  0  0  0  0  0  0  0  0  0  0
    0.7062    2.6807    0.0000 C   0  0  0  0  0  0  0  0  0  0  0  0
    0.3943    1.2135    0.0000 C   0  0  0  0  0  0  0  0  0  0  0  0
    1.2760    0.0000    0.0000 N   0  0  0  0  0  0  0  0  0  0  0  0
    0.3943   -1.2135    0.0000 C   0  0  0  0  0  0  0  0  0  0  0  0
   -1.0323   -0.7500    0.0000 S   0  0  0  0  0  0  0  0  0  0  0  0
   -1.0323    0.7500    0.0000 C   0  0  0  0  0  0  0  0  0  0  0  0
   -2.1470    1.7537    0.0000 C   0  0  0  0  0  0  0  0  0  0  0  0
   -3.7527    6.6955    0.0000 C   0  0  0  0  0  0  0  0  0  0  0  0
   -3.4408    8.1628    0.0000 C   0  0  0  0  0  0  0  0  0  0  0  0
   -4.5556    9.1664    0.0000 N   0  0  0  0  0  0  0  0  0  0  0  0
   -6.0228    8.8546    0.0000 C   0  0  0  0  0  0  0  0  0  0  0  0
   -6.7728   10.1536    0.0000 C   0  0  0  0  0  0  0  0  0  0  0  0
   -5.7691   11.2683    0.0000 C   0  0  0  0  0  0  0  0  0  0  0  0
   -4.3988   10.6582    0.0000 C   0  0  0  0  0  0  0  0  0  0  0  0
   -3.0997   11.4082    0.0000 C   0  0  0  0  0  0  0  0  0  0  0  0
   -1.8007   10.6582    0.0000 O   0  0  0  0  0  0  0  0  0  0  0  0
   -3.0997   12.9082    0.0000 N   0  0  0  0  0  0  0  0  0  0  0  0
   -1.8007   13.6582    0.0000 C   0  0  0  0  0  0  0  0  0  0  0  0
   -1.8007   15.1582    0.0000 C   0  0  0  0  0  0  0  0  0  0  0  0
   -0.5016   15.9082    0.0000 C   0  0  0  0  0  0  0  0  0  0  0  0
    0.7974   15.1582    0.0000 C   0  0  0  0  0  0  0  0  0  0  0  0
    2.0964   15.9082    0.0000 C   0  0  0  0  0  0  0  0  0  0  0  0
    2.0964   17.4082    0.0000 C   0  0  0  0  0  0  0  0  0  0  0  0
    0.7974   18.1582    0.0000 C   0  0  0  0  0  0  0  0  0  0  0  0
    0.7974   19.6582    0.0000 I   0  0  0  0  0  0  0  0  0  0  0  0
   -0.5016   17.4082    0.0000 C   0  0  0  0  0  0  0  0  0  0  0  0
   -2.0143    8.6263    0.0000 N   0  0  0  0  0  0  0  0  0  0  0  0
  1  2  1  0
  2  3  2  0
  3  4  1  0
  4  5  1  0
  5  6  1  0
  6  7  2  0
  7  8  1  0
  8  9  2  0
  9 10  1  0
 10 11  2  0
 11 12  1  0
 12 13  1  0
 13 14  2  0
  4 15  2  0
 15 16  1  0
 16 17  1  0
 17 18  1  0
 18 19  1  0
 19 20  1  0
 20 21  1  0
 21 22  1  1
 22 23  2  0
 22 24  1  0
 24 25  1  0
 25 26  1  0
 26 27  1  0
 27 28  2  0
 28 29  1  0
 29 30  2  0
 30 31  1  0
 31 32  1  0
 31 33  2  0
 16 34  2  0
 34  2  1  0
 14  6  1  0
 21 17  1  0
 33 27  1  0
 13  9  1  0
M  END
>  <Compound_ID>  (862) 
CHEMBL501463

>  <Molecule Name>  (862) 
nan

>  <Molecular Weight>  (862) 
585.48

>  <AlogP>  (862) 
4.34

>  <Smiles>  (862) 
Nc1nc(Nc2ccc3ncsc3c2)cc(N2CCC[C@H]2C(=O)NCCc2cccc(I)c2)n1

>  <Standard Type>  (862) 
Inhibition

>  <Standard Relation>  (862) 
'='

>  <Standard Units>  (862) 
%

>  <Standard Value>  (862) 
5.0

>  <Assay ChEMBL ID>  (862) 
CHEMBL965679

>  <Assay Description>  (862) 
Inhibition of TrkA at 10 uM by HTRF assay relative to control

>  <BAO Format ID>  (862) 
BAO_0000357

>  <BAO Label>  (862) 
single protein format

>  <Assay Organism>  (862) 
None

>  <Target ChEMBL ID>  (862) 
CHEMBL2815

>  <Target Name>  (862) 
Nerve growth factor receptor Trk-A

>  <Target Organism>  (862) 
Homo sapiens

>  <Target Type>  (862) 
SINGLE PROTEIN

>  <Document ChEMBL ID>  (862) 
CHEMBL1150387

>  <Source Description>  (862) 
Scientific Literature

>  <Document Journal>  (862) 
J Med Chem

>  <Document Year>  (862) 
2008.0

>  <Active>  (862) 
0.0

>  <bits>  (862) 
<rdkit.DataStructs.cDataStructs.ExplicitBitVect object at 0x00000159F7932880>

>  <Group>  (862) 
G2

$$$$

     RDKit          2D

 26 30  0  0  0  0  0  0  0  0999 V2000
   -4.6845  -11.4787    0.0000 C   0  0  0  0  0  0  0  0  0  0  0  0
   -6.1111  -11.0151    0.0000 C   0  0  0  0  0  0  0  0  0  0  0  0
   -6.4230   -9.5479    0.0000 N   0  0  0  0  0  0  0  0  0  0  0  0
   -5.3083   -8.5442    0.0000 N   0  0  0  0  0  0  0  0  0  0  0  0
   -5.3083   -7.0442    0.0000 N   0  0  0  0  0  0  0  0  0  0  0  0
   -3.8817   -6.5807    0.0000 C   0  0  0  0  0  0  0  0  0  0  0  0
   -3.0000   -7.7942    0.0000 C   0  0  0  0  0  0  0  0  0  0  0  0
   -1.5000   -7.7942    0.0000 C   0  0  0  0  0  0  0  0  0  0  0  0
   -0.7500   -9.0933    0.0000 C   0  0  0  0  0  0  0  0  0  0  0  0
    0.7500   -9.0933    0.0000 C   0  0  0  0  0  0  0  0  0  0  0  0
    1.5000   -7.7942    0.0000 N   0  0  0  0  0  0  0  0  0  0  0  0
    0.7500   -6.4952    0.0000 C   0  0  0  0  0  0  0  0  0  0  0  0
    1.5000   -5.1962    0.0000 N   0  0  0  0  0  0  0  0  0  0  0  0
    0.7500   -3.8971    0.0000 C   0  0  0  0  0  0  0  0  0  0  0  0
   -0.7500   -3.8971    0.0000 C   0  0  0  0  0  0  0  0  0  0  0  0
   -1.5000   -2.5981    0.0000 C   0  0  0  0  0  0  0  0  0  0  0  0
   -0.7500   -1.2990    0.0000 C   0  0  0  0  0  0  0  0  0  0  0  0
    0.7500   -1.2990    0.0000 C   0  0  0  0  0  0  0  0  0  0  0  0
    1.5000   -2.5981    0.0000 C   0  0  0  0  0  0  0  0  0  0  0  0
    1.5000    0.0000    0.0000 O   0  0  0  0  0  0  0  0  0  0  0  0
    0.7500    1.2990    0.0000 C   0  0  0  0  0  0  0  0  0  0  0  0
   -0.7500    1.2990    0.0000 C   0  0  0  0  0  0  0  0  0  0  0  0
   -1.5000    0.0000    0.0000 O   0  0  0  0  0  0  0  0  0  0  0  0
   -0.7500   -6.4952    0.0000 N   0  0  0  0  0  0  0  0  0  0  0  0
   -3.8817   -9.0078    0.0000 C   0  0  0  0  0  0  0  0  0  0  0  0
   -3.5698  -10.4750    0.0000 C   0  0  0  0  0  0  0  0  0  0  0  0
  1  2  1  0
  2  3  2  0
  3  4  1  0
  4  5  1  0
  5  6  2  0
  6  7  1  0
  7  8  1  0
  8  9  2  0
  9 10  1  0
 10 11  2  0
 11 12  1  0
 12 13  1  0
 13 14  1  0
 14 15  2  0
 15 16  1  0
 16 17  2  0
 17 18  1  0
 18 19  2  0
 18 20  1  0
 20 21  1  0
 21 22  1  0
 22 23  1  0
 12 24  2  0
  7 25  2  0
 25 26  1  0
 26  1  2  0
 25  4  1  0
 24  8  1  0
 19 14  1  0
 23 17  1  0
M  END
>  <Compound_ID>  (863) 
CHEMBL361894

>  <Molecule Name>  (863) 
GW806290X

>  <Molecular Weight>  (863) 
346.35

>  <AlogP>  (863) 
2.7

>  <Smiles>  (863) 
c1cnn2ncc(-c3ccnc(Nc4ccc5c(c4)OCCO5)n3)c2c1

>  <Standard Type>  (863) 
Inhibition

>  <Standard Relation>  (863) 
'='

>  <Standard Units>  (863) 
%

>  <Standard Value>  (863) 
9.5

>  <Assay ChEMBL ID>  (863) 
CHEMBL1962185

>  <Assay Description>  (863) 
GSK_PKIS: TRKA mean inhibition at 1 uM [Nanosyn]

>  <BAO Format ID>  (863) 
BAO_0000357

>  <BAO Label>  (863) 
single protein format

>  <Assay Organism>  (863) 
None

>  <Target ChEMBL ID>  (863) 
CHEMBL2815

>  <Target Name>  (863) 
Nerve growth factor receptor Trk-A

>  <Target Organism>  (863) 
Homo sapiens

>  <Target Type>  (863) 
SINGLE PROTEIN

>  <Document ChEMBL ID>  (863) 
CHEMBL1961873

>  <Source Description>  (863) 
GSK Published Kinase Inhibitor Set

>  <Document Journal>  (863) 
nan

>  <Document Year>  (863) 
nan

>  <Active>  (863) 
0.0

>  <bits>  (863) 
<rdkit.DataStructs.cDataStructs.ExplicitBitVect object at 0x00000159F7931FC0>

>  <Group>  (863) 
G2

$$$$

     RDKit          2D

 33 36  0  0  0  0  0  0  0  0999 V2000
    3.7500   -1.2990    0.0000 C   0  0  0  0  0  0  0  0  0  0  0  0
    3.0000    0.0000    0.0000 C   0  0  0  0  0  0  0  0  0  0  0  0
    3.7500    1.2990    0.0000 O   0  0  0  0  0  0  0  0  0  0  0  0
    1.5000    0.0000    0.0000 N   0  0  0  0  0  0  0  0  0  0  0  0
    0.7500   -1.2990    0.0000 C   0  0  0  0  0  0  0  0  0  0  0  0
   -0.7500   -1.2990    0.0000 C   0  0  0  0  0  0  0  0  0  0  0  0
   -1.5000    0.0000    0.0000 N   0  0  0  0  0  0  0  0  0  0  0  0
   -3.0000    0.0000    0.0000 C   0  0  0  0  0  0  0  0  0  0  0  0
   -3.7500   -1.2990    0.0000 O   0  0  0  0  0  0  0  0  0  0  0  0
   -3.7500    1.2990    0.0000 C   0  0  0  0  0  0  0  0  0  0  0  0
   -3.0000    2.5981    0.0000 C   0  0  0  0  0  0  0  0  0  0  0  0
   -3.7500    3.8971    0.0000 C   0  0  0  0  0  0  0  0  0  0  0  0
   -5.2500    3.8971    0.0000 C   0  0  0  0  0  0  0  0  0  0  0  0
   -6.0000    2.5981    0.0000 C   0  0  0  0  0  0  0  0  0  0  0  0
   -7.5000    2.5981    0.0000 N   0  0  0  0  0  0  0  0  0  0  0  0
   -8.2500    3.8971    0.0000 C   0  0  0  0  0  0  0  0  0  0  0  0
   -7.5000    5.1962    0.0000 C   0  0  0  0  0  0  0  0  0  0  0  0
   -8.2500    6.4952    0.0000 C   0  0  0  0  0  0  0  0  0  0  0  0
   -7.5000    7.7942    0.0000 N   0  0  0  0  0  0  0  0  0  0  0  0
   -6.0000    7.7942    0.0000 C   0  0  0  0  0  0  0  0  0  0  0  0
   -8.2500    9.0933    0.0000 C   0  0  0  0  0  0  0  0  0  0  0  0
   -7.5000   10.3923    0.0000 C   0  0  0  0  0  0  0  0  0  0  0  0
   -8.2500   11.6913    0.0000 C   0  0  0  0  0  0  0  0  0  0  0  0
   -9.7500   11.6913    0.0000 C   0  0  0  0  0  0  0  0  0  0  0  0
  -10.5000   10.3923    0.0000 C   0  0  0  0  0  0  0  0  0  0  0  0
  -12.0000   10.3923    0.0000 C   0  0  0  0  0  0  0  0  0  0  0  0
   -9.7500    9.0933    0.0000 C   0  0  0  0  0  0  0  0  0  0  0  0
   -9.7500    6.4952    0.0000 N   0  0  0  0  0  0  0  0  0  0  0  0
  -10.5000    5.1962    0.0000 C   0  0  0  0  0  0  0  0  0  0  0  0
   -9.7500    3.8971    0.0000 N   0  0  0  0  0  0  0  0  0  0  0  0
   -5.2500    1.2990    0.0000 C   0  0  0  0  0  0  0  0  0  0  0  0
   -0.7500    1.2990    0.0000 C   0  0  0  0  0  0  0  0  0  0  0  0
    0.7500    1.2990    0.0000 C   0  0  0  0  0  0  0  0  0  0  0  0
  1  2  1  0
  2  3  2  0
  2  4  1  0
  4  5  1  0
  5  6  1  0
  6  7  1  0
  7  8  1  0
  8  9  2  0
  8 10  1  0
 10 11  2  0
 11 12  1  0
 12 13  2  0
 13 14  1  0
 14 15  1  0
 15 16  1  0
 16 17  2  0
 17 18  1  0
 18 19  1  0
 19 20  1  0
 19 21  1  0
 21 22  2  0
 22 23  1  0
 23 24  2  0
 24 25  1  0
 25 26  1  0
 25 27  2  0
 18 28  2  0
 28 29  1  0
 29 30  2  0
 14 31  2  0
  7 32  1  0
 32 33  1  0
 33  4  1  0
 31 10  1  0
 30 16  1  0
 27 21  1  0
M  END
>  <Compound_ID>  (864) 
CHEMBL521478

>  <Molecule Name>  (864) 
nan

>  <Molecular Weight>  (864) 
444.54

>  <AlogP>  (864) 
3.6

>  <Smiles>  (864) 
CC(=O)N1CCN(C(=O)c2cccc(Nc3cc(N(C)c4cccc(C)c4)ncn3)c2)CC1

>  <Standard Type>  (864) 
Inhibition

>  <Standard Relation>  (864) 
'='

>  <Standard Units>  (864) 
%

>  <Standard Value>  (864) 
12.0

>  <Assay ChEMBL ID>  (864) 
CHEMBL965679

>  <Assay Description>  (864) 
Inhibition of TrkA at 10 uM by HTRF assay relative to control

>  <BAO Format ID>  (864) 
BAO_0000357

>  <BAO Label>  (864) 
single protein format

>  <Assay Organism>  (864) 
None

>  <Target ChEMBL ID>  (864) 
CHEMBL2815

>  <Target Name>  (864) 
Nerve growth factor receptor Trk-A

>  <Target Organism>  (864) 
Homo sapiens

>  <Target Type>  (864) 
SINGLE PROTEIN

>  <Document ChEMBL ID>  (864) 
CHEMBL1150387

>  <Source Description>  (864) 
Scientific Literature

>  <Document Journal>  (864) 
J Med Chem

>  <Document Year>  (864) 
2008.0

>  <Active>  (864) 
0.0

>  <bits>  (864) 
<rdkit.DataStructs.cDataStructs.ExplicitBitVect object at 0x00000159F7931230>

>  <Group>  (864) 
G2

$$$$

     RDKit          2D

 33 36  0  0  0  0  0  0  0  0999 V2000
    3.0000    0.0000    0.0000 C   0  0  0  0  0  0  0  0  0  0  0  0
    1.5000    0.0000    0.0000 C   0  0  0  0  0  0  0  0  0  0  0  0
    0.7500   -1.2990    0.0000 C   0  0  0  0  0  0  0  0  0  0  0  0
   -0.7500   -1.2990    0.0000 C   0  0  0  0  0  0  0  0  0  0  0  0
   -1.5000    0.0000    0.0000 C   0  0  0  0  0  0  0  0  0  0  0  0
   -0.7500    1.2990    0.0000 C   0  0  0  0  0  0  0  0  0  0  0  0
   -1.5000    2.5981    0.0000 N   0  0  0  0  0  0  0  0  0  0  0  0
   -0.7500    3.8971    0.0000 C   0  0  0  0  0  0  0  0  0  0  0  0
   -3.0000    2.5981    0.0000 C   0  0  0  0  0  0  0  0  0  0  0  0
   -3.7500    3.8971    0.0000 C   0  0  0  0  0  0  0  0  0  0  0  0
   -5.2500    3.8971    0.0000 C   0  0  0  0  0  0  0  0  0  0  0  0
   -6.0000    5.1962    0.0000 N   0  0  0  0  0  0  0  0  0  0  0  0
   -5.2500    6.4952    0.0000 C   0  0  0  0  0  0  0  0  0  0  0  0
   -3.7500    6.4952    0.0000 C   0  0  0  0  0  0  0  0  0  0  0  0
   -3.0000    7.7942    0.0000 C   0  0  0  0  0  0  0  0  0  0  0  0
   -3.7500    9.0933    0.0000 C   0  0  0  0  0  0  0  0  0  0  0  0
   -5.2500    9.0933    0.0000 C   0  0  0  0  0  0  0  0  0  0  0  0
   -6.0000   10.3923    0.0000 C   0  0  0  0  0  0  0  0  0  0  0  0
   -7.5000   10.3923    0.0000 O   0  0  0  0  0  0  0  0  0  0  0  0
   -5.2500   11.6913    0.0000 N   0  0  0  0  0  0  0  0  0  0  0  0
   -6.0000   12.9904    0.0000 C   0  0  0  0  0  0  0  0  0  0  0  0
   -5.2500   14.2894    0.0000 C   0  0  0  0  0  0  0  0  0  0  0  0
   -6.0000   15.5885    0.0000 C   0  0  0  0  0  0  0  0  0  0  0  0
   -5.2500   16.8875    0.0000 N   0  0  0  0  0  0  0  0  0  0  0  0
   -5.8601   18.2578    0.0000 C   0  0  0  0  0  0  0  0  0  0  0  0
   -4.7454   19.2615    0.0000 C   0  0  0  0  0  0  0  0  0  0  0  0
   -3.4463   18.5115    0.0000 N   0  0  0  0  0  0  0  0  0  0  0  0
   -3.7582   17.0443    0.0000 C   0  0  0  0  0  0  0  0  0  0  0  0
   -6.0000    7.7942    0.0000 C   0  0  0  0  0  0  0  0  0  0  0  0
   -6.0000    2.5981    0.0000 N   0  0  0  0  0  0  0  0  0  0  0  0
   -5.2500    1.2990    0.0000 C   0  0  0  0  0  0  0  0  0  0  0  0
   -3.7500    1.2990    0.0000 N   0  0  0  0  0  0  0  0  0  0  0  0
    0.7500    1.2990    0.0000 C   0  0  0  0  0  0  0  0  0  0  0  0
  1  2  1  0
  2  3  2  0
  3  4  1  0
  4  5  2  0
  5  6  1  0
  6  7  1  0
  7  8  1  0
  7  9  1  0
  9 10  2  0
 10 11  1  0
 11 12  1  0
 12 13  1  0
 13 14  2  0
 14 15  1  0
 15 16  2  0
 16 17  1  0
 17 18  1  0
 18 19  2  0
 18 20  1  0
 20 21  1  0
 21 22  1  0
 22 23  1  0
 23 24  1  0
 24 25  1  0
 25 26  2  0
 26 27  1  0
 27 28  2  0
 17 29  2  0
 11 30  2  0
 30 31  1  0
 31 32  2  0
  6 33  2  0
 33  2  1  0
 32  9  1  0
 29 13  1  0
 28 24  1  0
M  END
>  <Compound_ID>  (865) 
CHEMBL520971

>  <Molecule Name>  (865) 
nan

>  <Molecular Weight>  (865) 
441.54

>  <AlogP>  (865) 
4.31

>  <Smiles>  (865) 
Cc1cccc(N(C)c2cc(Nc3cccc(C(=O)NCCCn4ccnc4)c3)ncn2)c1

>  <Standard Type>  (865) 
Inhibition

>  <Standard Relation>  (865) 
'='

>  <Standard Units>  (865) 
%

>  <Standard Value>  (865) 
7.0

>  <Assay ChEMBL ID>  (865) 
CHEMBL965679

>  <Assay Description>  (865) 
Inhibition of TrkA at 10 uM by HTRF assay relative to control

>  <BAO Format ID>  (865) 
BAO_0000357

>  <BAO Label>  (865) 
single protein format

>  <Assay Organism>  (865) 
None

>  <Target ChEMBL ID>  (865) 
CHEMBL2815

>  <Target Name>  (865) 
Nerve growth factor receptor Trk-A

>  <Target Organism>  (865) 
Homo sapiens

>  <Target Type>  (865) 
SINGLE PROTEIN

>  <Document ChEMBL ID>  (865) 
CHEMBL1150387

>  <Source Description>  (865) 
Scientific Literature

>  <Document Journal>  (865) 
J Med Chem

>  <Document Year>  (865) 
2008.0

>  <Active>  (865) 
0.0

>  <bits>  (865) 
<rdkit.DataStructs.cDataStructs.ExplicitBitVect object at 0x00000159F7930E40>

>  <Group>  (865) 
G2

$$$$

     RDKit          2D

 25 27  0  0  0  0  0  0  0  0999 V2000
    1.6910   -7.9557    0.0000 C   0  0  0  0  0  0  0  0  0  0  0  0
    1.8478   -6.4639    0.0000 C   0  0  0  0  0  0  0  0  0  0  0  0
    2.0046   -4.9721    0.0000 N   0  0  0  0  0  0  0  0  0  0  0  0
    3.3037   -4.2221    0.0000 C   0  0  0  0  0  0  0  0  0  0  0  0
    4.6740   -4.8322    0.0000 C   0  0  0  0  0  0  0  0  0  0  0  0
    6.0443   -5.4423    0.0000 C   0  0  0  0  0  0  0  0  0  0  0  0
    7.4146   -6.0524    0.0000 C   0  0  0  0  0  0  0  0  0  0  0  0
    8.6281   -5.1707    0.0000 C   0  0  0  0  0  0  0  0  0  0  0  0
    9.9984   -5.7808    0.0000 O   0  0  0  0  0  0  0  0  0  0  0  0
    2.9918   -2.7549    0.0000 N   0  0  0  0  0  0  0  0  0  0  0  0
    1.5000   -2.5981    0.0000 C   0  0  0  0  0  0  0  0  0  0  0  0
    0.7500   -1.2990    0.0000 C   0  0  0  0  0  0  0  0  0  0  0  0
    1.5000    0.0000    0.0000 C   0  0  0  0  0  0  0  0  0  0  0  0
    0.7500    1.2990    0.0000 C   0  0  0  0  0  0  0  0  0  0  0  0
   -0.7500    1.2990    0.0000 C   0  0  0  0  0  0  0  0  0  0  0  0
   -1.5000    2.5981    0.0000 F   0  0  0  0  0  0  0  0  0  0  0  0
   -1.5000    0.0000    0.0000 C   0  0  0  0  0  0  0  0  0  0  0  0
   -0.7500   -1.2990    0.0000 C   0  0  0  0  0  0  0  0  0  0  0  0
    0.8899   -3.9684    0.0000 C   0  0  0  0  0  0  0  0  0  0  0  0
   -0.5773   -4.2803    0.0000 C   0  0  0  0  0  0  0  0  0  0  0  0
   -1.5810   -3.1655    0.0000 C   0  0  0  0  0  0  0  0  0  0  0  0
   -3.0482   -3.4774    0.0000 C   0  0  0  0  0  0  0  0  0  0  0  0
   -3.5118   -4.9040    0.0000 N   0  0  0  0  0  0  0  0  0  0  0  0
   -2.5081   -6.0187    0.0000 C   0  0  0  0  0  0  0  0  0  0  0  0
   -1.0409   -5.7068    0.0000 C   0  0  0  0  0  0  0  0  0  0  0  0
  1  2  3  0
  2  3  1  0
  3  4  1  0
  4  5  1  0
  5  6  3  0
  6  7  1  0
  7  8  1  0
  8  9  1  0
  4 10  2  0
 10 11  1  0
 11 12  1  0
 12 13  2  0
 13 14  1  0
 14 15  2  0
 15 16  1  0
 15 17  1  0
 17 18  2  0
 11 19  2  0
 19 20  1  0
 20 21  2  0
 21 22  1  0
 22 23  2  0
 23 24  1  0
 24 25  2  0
 19  3  1  0
 25 20  1  0
 18 12  1  0
M  END
>  <Compound_ID>  (866) 
CHEMBL576620

>  <Molecule Name>  (866) 
nan

>  <Molecular Weight>  (866) 
331.35

>  <AlogP>  (866) 
2.92

>  <Smiles>  (866) 
C#Cn1c(C#CCCO)nc(-c2ccc(F)cc2)c1-c1ccncc1

>  <Standard Type>  (866) 
Inhibition

>  <Standard Relation>  (866) 
'='

>  <Standard Units>  (866) 
%

>  <Standard Value>  (866) 
1.0

>  <Assay ChEMBL ID>  (866) 
CHEMBL1044534

>  <Assay Description>  (866) 
Inhibition of human NTRK1 at 20 uM by FRET assay

>  <BAO Format ID>  (866) 
BAO_0000357

>  <BAO Label>  (866) 
single protein format

>  <Assay Organism>  (866) 
Homo sapiens

>  <Target ChEMBL ID>  (866) 
CHEMBL2815

>  <Target Name>  (866) 
Nerve growth factor receptor Trk-A

>  <Target Organism>  (866) 
Homo sapiens

>  <Target Type>  (866) 
SINGLE PROTEIN

>  <Document ChEMBL ID>  (866) 
CHEMBL1156108

>  <Source Description>  (866) 
Scientific Literature

>  <Document Journal>  (866) 
Bioorg Med Chem Lett

>  <Document Year>  (866) 
2009.0

>  <Active>  (866) 
0.0

>  <bits>  (866) 
<rdkit.DataStructs.cDataStructs.ExplicitBitVect object at 0x00000159F7933B50>

>  <Group>  (866) 
G2

$$$$

     RDKit          2D

 16 17  0  0  0  0  0  0  0  0999 V2000
    3.7500   -1.2990    0.0000 C   0  0  0  0  0  0  0  0  0  0  0  0
    3.0000    0.0000    0.0000 C   0  0  0  0  0  0  0  0  0  0  0  0
    3.7500    1.2990    0.0000 C   0  0  0  0  0  0  0  0  0  0  0  0
    1.5000    0.0000    0.0000 C   0  0  0  0  0  0  0  0  0  0  0  0
    0.7500   -1.2990    0.0000 C   0  0  0  0  0  0  0  0  0  0  0  0
   -0.7500   -1.2990    0.0000 C   0  0  0  0  0  0  0  0  0  0  0  0
   -1.5000   -2.5981    0.0000 N   0  0  0  0  0  0  0  0  0  0  0  0
   -0.8899   -3.9684    0.0000 C   0  0  0  0  0  0  0  0  0  0  0  0
   -2.0046   -4.9721    0.0000 C   0  0  0  0  0  0  0  0  0  0  0  0
   -3.3037   -4.2221    0.0000 C   0  0  0  0  0  0  0  0  0  0  0  0
   -4.6740   -4.8322    0.0000 N   0  0  0  0  0  0  0  0  0  0  0  0
   -2.9918   -2.7549    0.0000 C   0  0  0  0  0  0  0  0  0  0  0  0
   -1.5000    0.0000    0.0000 N   0  0  0  0  0  0  0  0  0  0  0  0
   -0.7500    1.2990    0.0000 C   0  0  0  0  0  0  0  0  0  0  0  0
   -1.5000    2.5981    0.0000 N   0  0  0  0  0  0  0  0  0  0  0  0
    0.7500    1.2990    0.0000 N   0  0  0  0  0  0  0  0  0  0  0  0
  1  2  1  0
  2  3  1  0
  2  4  1  0
  4  5  2  0
  5  6  1  0
  6  7  1  0
  7  8  1  0
  8  9  1  0
  9 10  1  0
 10 11  1  1
 10 12  1  0
  6 13  2  0
 13 14  1  0
 14 15  1  0
 14 16  2  0
 16  4  1  0
 12  7  1  0
M  END
>  <Compound_ID>  (867) 
CHEMBL3236549

>  <Molecule Name>  (867) 
JNJ-39758979

>  <Molecular Weight>  (867) 
221.31

>  <AlogP>  (867) 
0.72

>  <Smiles>  (867) 
CC(C)c1cc(N2CC[C@@H](N)C2)nc(N)n1

>  <Standard Type>  (867) 
Inhibition

>  <Standard Relation>  (867) 
'='

>  <Standard Units>  (867) 
%

>  <Standard Value>  (867) 
13.0

>  <Assay ChEMBL ID>  (867) 
CHEMBL5058956

>  <Assay Description>  (867) 
TrkA(h) Millipore kinase panel

>  <BAO Format ID>  (867) 
BAO_0000357

>  <BAO Label>  (867) 
single protein format

>  <Assay Organism>  (867) 
Homo sapiens

>  <Target ChEMBL ID>  (867) 
CHEMBL2815

>  <Target Name>  (867) 
Nerve growth factor receptor Trk-A

>  <Target Organism>  (867) 
Homo sapiens

>  <Target Type>  (867) 
SINGLE PROTEIN

>  <Document ChEMBL ID>  (867) 
CHEMBL5058644

>  <Source Description>  (867) 
Donated Chemical Probes - SGC Frankfurt

>  <Document Journal>  (867) 
nan

>  <Document Year>  (867) 
2022.0

>  <Active>  (867) 
0.0

>  <bits>  (867) 
<rdkit.DataStructs.cDataStructs.ExplicitBitVect object at 0x00000159F53A17E0>

>  <Group>  (867) 
G2

$$$$

     RDKit          2D

 27 30  0  0  0  0  0  0  0  0999 V2000
    3.0000    0.0000    0.0000 F   0  0  0  0  0  0  0  0  0  0  0  0
    1.5000    0.0000    0.0000 C   0  0  0  0  0  0  0  0  0  0  0  0
    0.7500   -1.2990    0.0000 C   0  0  0  0  0  0  0  0  0  0  0  0
   -0.7500   -1.2990    0.0000 C   0  0  0  0  0  0  0  0  0  0  0  0
   -1.5000    0.0000    0.0000 C   0  0  0  0  0  0  0  0  0  0  0  0
   -3.0000    0.0000    0.0000 C   0  0  0  0  0  0  0  0  0  0  0  0
   -3.8817   -1.2135    0.0000 N   0  0  0  0  0  0  0  0  0  0  0  0
   -5.3083   -0.7500    0.0000 C   0  0  0  0  0  0  0  0  0  0  0  0
   -5.3083    0.7500    0.0000 N   0  0  0  0  0  0  0  0  0  0  0  0
   -6.5218    1.6317    0.0000 C   0  0  0  0  0  0  0  0  0  0  0  0
   -6.3650    3.1235    0.0000 C   0  0  0  0  0  0  0  0  0  0  0  0
   -7.5785    4.0051    0.0000 C   0  0  0  0  0  0  0  0  0  0  0  0
   -7.4217    5.4969    0.0000 N   0  0  0  0  0  0  0  0  0  0  0  0
   -6.0514    6.1070    0.0000 C   0  0  0  0  0  0  0  0  0  0  0  0
   -5.8946    7.5988    0.0000 C   0  0  0  0  0  0  0  0  0  0  0  0
   -7.1081    8.4805    0.0000 O   0  0  0  0  0  0  0  0  0  0  0  0
   -8.4785    7.8704    0.0000 C   0  0  0  0  0  0  0  0  0  0  0  0
   -8.6353    6.3786    0.0000 C   0  0  0  0  0  0  0  0  0  0  0  0
   -3.8817    1.2135    0.0000 C   0  0  0  0  0  0  0  0  0  0  0  0
   -3.4182    2.6401    0.0000 C   0  0  0  0  0  0  0  0  0  0  0  0
   -1.9509    2.9520    0.0000 C   0  0  0  0  0  0  0  0  0  0  0  0
   -1.4874    4.3786    0.0000 C   0  0  0  0  0  0  0  0  0  0  0  0
   -2.4911    5.4933    0.0000 N   0  0  0  0  0  0  0  0  0  0  0  0
   -3.9583    5.1814    0.0000 C   0  0  0  0  0  0  0  0  0  0  0  0
   -4.4218    3.7548    0.0000 C   0  0  0  0  0  0  0  0  0  0  0  0
   -0.7500    1.2990    0.0000 C   0  0  0  0  0  0  0  0  0  0  0  0
    0.7500    1.2990    0.0000 C   0  0  0  0  0  0  0  0  0  0  0  0
  1  2  1  0
  2  3  2  0
  3  4  1  0
  4  5  2  0
  5  6  1  0
  6  7  1  0
  7  8  2  0
  8  9  1  0
  9 10  1  0
 10 11  1  0
 11 12  1  0
 12 13  1  0
 13 14  1  0
 14 15  1  0
 15 16  1  0
 16 17  1  0
 17 18  1  0
  9 19  1  0
 19 20  1  0
 20 21  2  0
 21 22  1  0
 22 23  2  0
 23 24  1  0
 24 25  2  0
  5 26  1  0
 26 27  2  0
 27  2  1  0
 19  6  2  0
 25 20  1  0
 18 13  1  0
M  END
>  <Compound_ID>  (868) 
CHEMBL14112

>  <Molecule Name>  (868) 
SB-210313

>  <Molecular Weight>  (868) 
366.44

>  <AlogP>  (868) 
3.47

>  <Smiles>  (868) 
Fc1ccc(-c2ncn(CCCN3CCOCC3)c2-c2ccncc2)cc1

>  <Standard Type>  (868) 
Inhibition

>  <Standard Relation>  (868) 
'='

>  <Standard Units>  (868) 
%

>  <Standard Value>  (868) 
-2.74

>  <Assay ChEMBL ID>  (868) 
CHEMBL1962185

>  <Assay Description>  (868) 
GSK_PKIS: TRKA mean inhibition at 1 uM [Nanosyn]

>  <BAO Format ID>  (868) 
BAO_0000357

>  <BAO Label>  (868) 
single protein format

>  <Assay Organism>  (868) 
None

>  <Target ChEMBL ID>  (868) 
CHEMBL2815

>  <Target Name>  (868) 
Nerve growth factor receptor Trk-A

>  <Target Organism>  (868) 
Homo sapiens

>  <Target Type>  (868) 
SINGLE PROTEIN

>  <Document ChEMBL ID>  (868) 
CHEMBL1961873

>  <Source Description>  (868) 
GSK Published Kinase Inhibitor Set

>  <Document Journal>  (868) 
nan

>  <Document Year>  (868) 
nan

>  <Active>  (868) 
0.0

>  <bits>  (868) 
<rdkit.DataStructs.cDataStructs.ExplicitBitVect object at 0x00000159F53A2CE0>

>  <Group>  (868) 
G2

$$$$

     RDKit          2D

 18 20  0  0  0  0  0  0  0  0999 V2000
   -8.0346   -3.5760    0.0000 C   0  0  0  0  0  0  0  0  0  0  0  0
   -6.9199   -4.5797    0.0000 O   0  0  0  0  0  0  0  0  0  0  0  0
   -5.4933   -4.1162    0.0000 C   0  0  0  0  0  0  0  0  0  0  0  0
   -5.1814   -2.6490    0.0000 C   0  0  0  0  0  0  0  0  0  0  0  0
   -3.7548   -2.1855    0.0000 C   0  0  0  0  0  0  0  0  0  0  0  0
   -2.6401   -3.1891    0.0000 C   0  0  0  0  0  0  0  0  0  0  0  0
   -1.2135   -2.7256    0.0000 C   0  0  0  0  0  0  0  0  0  0  0  0
   -0.0000   -3.6073    0.0000 C   0  0  0  0  0  0  0  0  0  0  0  0
    1.2135   -2.7256    0.0000 O   0  0  0  0  0  0  0  0  0  0  0  0
    0.7500   -1.2990    0.0000 C   0  0  0  0  0  0  0  0  0  0  0  0
    1.5000    0.0000    0.0000 N   0  0  0  0  0  0  0  0  0  0  0  0
    0.7500    1.2990    0.0000 C   0  0  0  0  0  0  0  0  0  0  0  0
   -0.7500    1.2990    0.0000 N   0  0  0  0  0  0  0  0  0  0  0  0
   -1.5000    0.0000    0.0000 C   0  0  0  0  0  0  0  0  0  0  0  0
   -3.0000    0.0000    0.0000 N   0  0  0  0  0  0  0  0  0  0  0  0
   -0.7500   -1.2990    0.0000 C   0  0  0  0  0  0  0  0  0  0  0  0
   -2.9520   -4.6564    0.0000 C   0  0  0  0  0  0  0  0  0  0  0  0
   -4.3786   -5.1199    0.0000 C   0  0  0  0  0  0  0  0  0  0  0  0
  1  2  1  0
  2  3  1  0
  3  4  2  0
  4  5  1  0
  5  6  2  0
  6  7  1  0
  7  8  2  0
  8  9  1  0
  9 10  1  0
 10 11  2  0
 11 12  1  0
 12 13  2  0
 13 14  1  0
 14 15  1  0
 14 16  2  0
  6 17  1  0
 17 18  2  0
 18  3  1  0
 16  7  1  0
 16 10  1  0
M  END
>  <Compound_ID>  (869) 
CHEMBL196022

>  <Molecule Name>  (869) 
GW642125X

>  <Molecular Weight>  (869) 
241.25

>  <AlogP>  (869) 
2.48

>  <Smiles>  (869) 
COc1ccc(-c2coc3ncnc(N)c23)cc1

>  <Standard Type>  (869) 
Inhibition

>  <Standard Relation>  (869) 
'='

>  <Standard Units>  (869) 
%

>  <Standard Value>  (869) 
2.06

>  <Assay ChEMBL ID>  (869) 
CHEMBL1962185

>  <Assay Description>  (869) 
GSK_PKIS: TRKA mean inhibition at 1 uM [Nanosyn]

>  <BAO Format ID>  (869) 
BAO_0000357

>  <BAO Label>  (869) 
single protein format

>  <Assay Organism>  (869) 
None

>  <Target ChEMBL ID>  (869) 
CHEMBL2815

>  <Target Name>  (869) 
Nerve growth factor receptor Trk-A

>  <Target Organism>  (869) 
Homo sapiens

>  <Target Type>  (869) 
SINGLE PROTEIN

>  <Document ChEMBL ID>  (869) 
CHEMBL1961873

>  <Source Description>  (869) 
GSK Published Kinase Inhibitor Set

>  <Document Journal>  (869) 
nan

>  <Document Year>  (869) 
nan

>  <Active>  (869) 
0.0

>  <bits>  (869) 
<rdkit.DataStructs.cDataStructs.ExplicitBitVect object at 0x00000159F53A3840>

>  <Group>  (869) 
G2

$$$$

     RDKit          2D

 28 31  0  0  0  0  0  0  0  0999 V2000
    5.3228   -7.2195    0.0000 C   0  0  0  0  0  0  0  0  0  0  0  0
    6.0728   -5.9204    0.0000 O   0  0  0  0  0  0  0  0  0  0  0  0
    5.3228   -4.6214    0.0000 C   0  0  0  0  0  0  0  0  0  0  0  0
    6.0728   -3.3223    0.0000 C   0  0  0  0  0  0  0  0  0  0  0  0
    7.5646   -3.1655    0.0000 C   0  0  0  0  0  0  0  0  0  0  0  0
    7.8765   -1.6983    0.0000 C   0  0  0  0  0  0  0  0  0  0  0  0
    6.5774   -0.9483    0.0000 C   0  0  0  0  0  0  0  0  0  0  0  0
    5.4627   -1.9520    0.0000 N   0  0  0  0  0  0  0  0  0  0  0  0
    3.9955   -1.6402    0.0000 C   0  0  0  0  0  0  0  0  0  0  0  0
    3.5320   -0.2136    0.0000 O   0  0  0  0  0  0  0  0  0  0  0  0
    2.9918   -2.7549    0.0000 C   0  0  0  0  0  0  0  0  0  0  0  0
    3.3037   -4.2221    0.0000 C   0  0  0  0  0  0  0  0  0  0  0  0
    2.0046   -4.9721    0.0000 C   0  0  0  0  0  0  0  0  0  0  0  0
    0.8899   -3.9684    0.0000 C   0  0  0  0  0  0  0  0  0  0  0  0
    1.5000   -2.5981    0.0000 N   0  0  0  0  0  0  0  0  0  0  0  0
    0.7500   -1.2990    0.0000 C   0  0  0  0  0  0  0  0  0  0  0  0
    1.5000    0.0000    0.0000 N   0  0  0  0  0  0  0  0  0  0  0  0
    0.7500    1.2990    0.0000 C   0  0  0  0  0  0  0  0  0  0  0  0
   -0.7500    1.2990    0.0000 C   0  0  0  0  0  0  0  0  0  0  0  0
   -1.5000    0.0000    0.0000 C   0  0  0  0  0  0  0  0  0  0  0  0
   -3.0000    0.0000    0.0000 N   0  0  0  0  0  0  0  0  0  0  0  0
   -3.7500    1.2990    0.0000 C   0  0  0  0  0  0  0  0  0  0  0  0
   -3.0000    2.5981    0.0000 C   0  0  0  0  0  0  0  0  0  0  0  0
   -3.7500    3.8971    0.0000 C   0  0  0  0  0  0  0  0  0  0  0  0
   -5.2500    3.8971    0.0000 C   0  0  0  0  0  0  0  0  0  0  0  0
   -6.0000    2.5981    0.0000 C   0  0  0  0  0  0  0  0  0  0  0  0
   -5.2500    1.2990    0.0000 C   0  0  0  0  0  0  0  0  0  0  0  0
   -0.7500   -1.2990    0.0000 N   0  0  0  0  0  0  0  0  0  0  0  0
  1  2  1  0
  2  3  1  0
  4  3  1  1
  4  5  1  0
  5  6  1  0
  6  7  1  0
  7  8  1  0
  8  9  1  0
  9 10  2  0
 11  9  1  6
 11 12  1  0
 12 13  1  0
 13 14  1  0
 14 15  1  0
 15 16  1  0
 16 17  2  0
 17 18  1  0
 18 19  2  0
 19 20  1  0
 20 21  1  0
 21 22  1  0
 22 23  2  0
 23 24  1  0
 24 25  2  0
 25 26  1  0
 26 27  2  0
 20 28  2  0
  8  4  1  0
 15 11  1  0
 28 16  1  0
 27 22  1  0
M  END
>  <Compound_ID>  (870) 
CHEMBL519349

>  <Molecule Name>  (870) 
nan

>  <Molecular Weight>  (870) 
381.48

>  <AlogP>  (870) 
2.83

>  <Smiles>  (870) 
COC[C@@H]1CCCN1C(=O)[C@@H]1CCCN1c1nccc(Nc2ccccc2)n1

>  <Standard Type>  (870) 
Inhibition

>  <Standard Relation>  (870) 
'='

>  <Standard Units>  (870) 
%

>  <Standard Value>  (870) 
8.0

>  <Assay ChEMBL ID>  (870) 
CHEMBL965679

>  <Assay Description>  (870) 
Inhibition of TrkA at 10 uM by HTRF assay relative to control

>  <BAO Format ID>  (870) 
BAO_0000357

>  <BAO Label>  (870) 
single protein format

>  <Assay Organism>  (870) 
None

>  <Target ChEMBL ID>  (870) 
CHEMBL2815

>  <Target Name>  (870) 
Nerve growth factor receptor Trk-A

>  <Target Organism>  (870) 
Homo sapiens

>  <Target Type>  (870) 
SINGLE PROTEIN

>  <Document ChEMBL ID>  (870) 
CHEMBL1150387

>  <Source Description>  (870) 
Scientific Literature

>  <Document Journal>  (870) 
J Med Chem

>  <Document Year>  (870) 
2008.0

>  <Active>  (870) 
0.0

>  <bits>  (870) 
<rdkit.DataStructs.cDataStructs.ExplicitBitVect object at 0x00000159F53A2960>

>  <Group>  (870) 
G2

$$$$

     RDKit          2D

 24 25  0  0  0  0  0  0  0  0999 V2000
    3.7500    1.2990    0.0000 O   0  0  0  0  0  0  0  0  0  0  0  0
    3.0000    0.0000    0.0000 C   0  0  0  0  0  0  0  0  0  0  0  0
    3.7500   -1.2990    0.0000 N   0  0  0  0  0  0  0  0  0  0  0  0
    5.2500   -1.2990    0.0000 O   0  0  0  0  0  0  0  0  0  0  0  0
    6.0000   -2.5981    0.0000 C   0  0  0  0  0  0  0  0  0  0  0  0
    7.5000   -2.5981    0.0000 C   0  0  0  0  0  0  0  0  0  0  0  0
    8.2500   -3.8971    0.0000 O   0  0  0  0  0  0  0  0  0  0  0  0
    1.5000    0.0000    0.0000 C   0  0  0  0  0  0  0  0  0  0  0  0
    0.7500   -1.2990    0.0000 C   0  0  0  0  0  0  0  0  0  0  0  0
   -0.7500   -1.2990    0.0000 C   0  0  0  0  0  0  0  0  0  0  0  0
   -1.5000    0.0000    0.0000 C   0  0  0  0  0  0  0  0  0  0  0  0
   -3.0000    0.0000    0.0000 F   0  0  0  0  0  0  0  0  0  0  0  0
   -0.7500    1.2990    0.0000 C   0  0  0  0  0  0  0  0  0  0  0  0
   -1.5000    2.5981    0.0000 F   0  0  0  0  0  0  0  0  0  0  0  0
    0.7500    1.2990    0.0000 C   0  0  0  0  0  0  0  0  0  0  0  0
    1.5000    2.5981    0.0000 N   0  0  0  0  0  0  0  0  0  0  0  0
    0.7500    3.8971    0.0000 C   0  0  0  0  0  0  0  0  0  0  0  0
   -0.7500    3.8971    0.0000 C   0  0  0  0  0  0  0  0  0  0  0  0
   -1.5000    5.1962    0.0000 C   0  0  0  0  0  0  0  0  0  0  0  0
   -0.7500    6.4952    0.0000 C   0  0  0  0  0  0  0  0  0  0  0  0
   -1.5000    7.7942    0.0000 I   0  0  0  0  0  0  0  0  0  0  0  0
    0.7500    6.4952    0.0000 C   0  0  0  0  0  0  0  0  0  0  0  0
    1.5000    5.1962    0.0000 C   0  0  0  0  0  0  0  0  0  0  0  0
    3.0000    5.1962    0.0000 F   0  0  0  0  0  0  0  0  0  0  0  0
  1  2  2  0
  2  3  1  0
  3  4  1  0
  4  5  1  0
  5  6  1  0
  6  7  1  0
  2  8  1  0
  8  9  2  0
  9 10  1  0
 10 11  2  0
 11 12  1  0
 11 13  1  0
 13 14  1  0
 13 15  2  0
 15 16  1  0
 16 17  1  0
 17 18  2  0
 18 19  1  0
 19 20  2  0
 20 21  1  0
 20 22  1  0
 22 23  2  0
 23 24  1  0
 15  8  1  0
 23 17  1  0
M  END
>  <Compound_ID>  (871) 
CHEMBL244488

>  <Molecule Name>  (871) 
nan

>  <Molecular Weight>  (871) 
452.17

>  <AlogP>  (871) 
3.11

>  <Smiles>  (871) 
O=C(NOCCO)c1ccc(F)c(F)c1Nc1ccc(I)cc1F

>  <Standard Type>  (871) 
Inhibition

>  <Standard Relation>  (871) 
'='

>  <Standard Units>  (871) 
%

>  <Standard Value>  (871) 
14.0

>  <Assay ChEMBL ID>  (871) 
CHEMBL1011755

>  <Assay Description>  (871) 
Binding affinity to TrkA at 10 uM

>  <BAO Format ID>  (871) 
BAO_0000357

>  <BAO Label>  (871) 
single protein format

>  <Assay Organism>  (871) 
None

>  <Target ChEMBL ID>  (871) 
CHEMBL2815

>  <Target Name>  (871) 
Nerve growth factor receptor Trk-A

>  <Target Organism>  (871) 
Homo sapiens

>  <Target Type>  (871) 
SINGLE PROTEIN

>  <Document ChEMBL ID>  (871) 
CHEMBL1139272

>  <Source Description>  (871) 
Scientific Literature

>  <Document Journal>  (871) 
Bioorg Med Chem Lett

>  <Document Year>  (871) 
2009.0

>  <Active>  (871) 
0.0

>  <bits>  (871) 
<rdkit.DataStructs.cDataStructs.ExplicitBitVect object at 0x00000159F53A20A0>

>  <Group>  (871) 
G2

$$$$

     RDKit          2D

 28 31  0  0  0  0  0  0  0  0999 V2000
    6.5260    1.2990    0.0000 C   0  0  0  0  0  0  0  0  0  0  0  0
    5.0260    1.2990    0.0000 S   0  0  0  0  0  0  0  0  0  0  0  0
    5.0260   -0.2010    0.0000 O   0  0  0  0  0  0  0  0  0  0  0  0
    5.0260    2.7990    0.0000 O   0  0  0  0  0  0  0  0  0  0  0  0
    3.5260    1.2990    0.0000 N   0  0  0  0  0  0  0  0  0  0  0  0
    2.7760    0.0000    0.0000 C   0  0  0  0  0  0  0  0  0  0  0  0
    1.2760    0.0000    0.0000 C   0  0  0  0  0  0  0  0  0  0  0  0
    0.3943    1.2135    0.0000 C   0  0  0  0  0  0  0  0  0  0  0  0
   -1.0323    0.7500    0.0000 C   0  0  0  0  0  0  0  0  0  0  0  0
   -1.0323   -0.7500    0.0000 C   0  0  0  0  0  0  0  0  0  0  0  0
   -2.1470   -1.7537    0.0000 C   0  0  0  0  0  0  0  0  0  0  0  0
   -3.5736   -1.2902    0.0000 N   0  0  0  0  0  0  0  0  0  0  0  0
   -3.8855    0.1771    0.0000 C   0  0  0  0  0  0  0  0  0  0  0  0
   -5.3120    0.6406    0.0000 C   0  0  0  0  0  0  0  0  0  0  0  0
   -6.4268   -0.3631    0.0000 O   0  0  0  0  0  0  0  0  0  0  0  0
   -6.1149   -1.8303    0.0000 C   0  0  0  0  0  0  0  0  0  0  0  0
   -4.6883   -2.2939    0.0000 C   0  0  0  0  0  0  0  0  0  0  0  0
   -1.8351   -3.2209    0.0000 N   0  0  0  0  0  0  0  0  0  0  0  0
   -0.4086   -3.6844    0.0000 C   0  0  0  0  0  0  0  0  0  0  0  0
   -0.0967   -5.1517    0.0000 C   0  0  0  0  0  0  0  0  0  0  0  0
   -1.2114   -6.1554    0.0000 C   0  0  0  0  0  0  0  0  0  0  0  0
   -0.8995   -7.6226    0.0000 N   0  0  0  0  0  0  0  0  0  0  0  0
    0.5271   -8.0861    0.0000 C   0  0  0  0  0  0  0  0  0  0  0  0
    0.8389   -9.5533    0.0000 N   0  0  0  0  0  0  0  0  0  0  0  0
    1.6418   -7.0824    0.0000 N   0  0  0  0  0  0  0  0  0  0  0  0
    1.3299   -5.6152    0.0000 C   0  0  0  0  0  0  0  0  0  0  0  0
    0.7062   -2.6807    0.0000 N   0  0  0  0  0  0  0  0  0  0  0  0
    0.3943   -1.2135    0.0000 N   0  0  0  0  0  0  0  0  0  0  0  0
  1  2  1  0
  2  3  2  0
  2  4  2  0
  2  5  1  0
  5  6  1  0
  6  7  1  0
  7  8  2  0
  8  9  1  0
  9 10  2  0
 10 11  1  0
 11 12  1  0
 12 13  1  0
 13 14  1  0
 14 15  1  0
 15 16  1  0
 16 17  1  0
 11 18  2  0
 18 19  1  0
 19 20  1  0
 20 21  2  0
 21 22  1  0
 22 23  2  0
 23 24  1  0
 23 25  1  0
 25 26  2  0
 19 27  2  0
 27 28  1  0
 28  7  1  0
 28 10  1  0
 17 12  1  0
 26 20  1  0
M  END
>  <Compound_ID>  (872) 
CHEMBL3601472

>  <Molecule Name>  (872) 
nan

>  <Molecular Weight>  (872) 
404.46

>  <AlogP>  (872) 
-0.35

>  <Smiles>  (872) 
CS(=O)(=O)NCc1ccc2c(N3CCOCC3)nc(-c3cnc(N)nc3)nn12

>  <Standard Type>  (872) 
Inhibition

>  <Standard Relation>  (872) 
'='

>  <Standard Units>  (872) 
%

>  <Standard Value>  (872) 
-2.0

>  <Assay ChEMBL ID>  (872) 
CHEMBL3603012

>  <Assay Description>  (872) 
Inhibition of recombinant TRKA (unknown origin) at 1 uM after 3 hrs

>  <BAO Format ID>  (872) 
BAO_0000357

>  <BAO Label>  (872) 
single protein format

>  <Assay Organism>  (872) 
Homo sapiens

>  <Target ChEMBL ID>  (872) 
CHEMBL2815

>  <Target Name>  (872) 
Nerve growth factor receptor Trk-A

>  <Target Organism>  (872) 
Homo sapiens

>  <Target Type>  (872) 
SINGLE PROTEIN

>  <Document ChEMBL ID>  (872) 
CHEMBL3600296

>  <Source Description>  (872) 
Scientific Literature

>  <Document Journal>  (872) 
Bioorg Med Chem Lett

>  <Document Year>  (872) 
2015.0

>  <Active>  (872) 
0.0

>  <bits>  (872) 
<rdkit.DataStructs.cDataStructs.ExplicitBitVect object at 0x00000159F53A34C0>

>  <Group>  (872) 
G2

$$$$

     RDKit          2D

 40 45  0  0  0  0  0  0  0  0999 V2000
   -7.9106   -1.1931    0.0000 C   0  0  0  0  0  0  0  0  0  0  0  0
   -6.4188   -1.3499    0.0000 C   0  0  0  0  0  0  0  0  0  0  0  0
   -5.5371   -0.1364    0.0000 N   0  0  0  0  0  0  0  0  0  0  0  0
   -4.0371   -0.1364    0.0000 C   0  0  0  0  0  0  0  0  0  0  0  0
   -3.5736    1.2902    0.0000 C   0  0  0  0  0  0  0  0  0  0  0  0
   -2.1470    1.7537    0.0000 C   0  0  0  0  0  0  0  0  0  0  0  0
   -1.8351    3.2209    0.0000 C   0  0  0  0  0  0  0  0  0  0  0  0
   -0.4086    3.6844    0.0000 C   0  0  0  0  0  0  0  0  0  0  0  0
    0.7062    2.6807    0.0000 N   0  0  0  0  0  0  0  0  0  0  0  0
    0.3943    1.2135    0.0000 C   0  0  0  0  0  0  0  0  0  0  0  0
    1.2760    0.0000    0.0000 N   0  0  0  0  0  0  0  0  0  0  0  0
    0.3943   -1.2135    0.0000 C   0  0  0  0  0  0  0  0  0  0  0  0
   -1.0323   -0.7500    0.0000 C   0  0  0  0  0  0  0  0  0  0  0  0
   -1.0323    0.7500    0.0000 C   0  0  0  0  0  0  0  0  0  0  0  0
   -4.7871    2.1718    0.0000 C   0  0  0  0  0  0  0  0  0  0  0  0
   -4.7871    3.6718    0.0000 C   0  0  0  0  0  0  0  0  0  0  0  0
   -3.4881    4.4218    0.0000 C   0  0  0  0  0  0  0  0  0  0  0  0
   -3.4881    5.9218    0.0000 C   0  0  0  0  0  0  0  0  0  0  0  0
   -4.7871    6.6718    0.0000 C   0  0  0  0  0  0  0  0  0  0  0  0
   -6.0862    5.9218    0.0000 C   0  0  0  0  0  0  0  0  0  0  0  0
   -7.3852    6.6718    0.0000 N   0  0  0  0  0  0  0  0  0  0  0  0
   -7.3852    8.1718    0.0000 C   0  0  0  0  0  0  0  0  0  0  0  0
   -6.0862    8.9218    0.0000 O   0  0  0  0  0  0  0  0  0  0  0  0
   -8.6842    8.9218    0.0000 N   0  0  0  0  0  0  0  0  0  0  0  0
   -8.6842   10.4218    0.0000 C   0  0  0  0  0  0  0  0  0  0  0  0
   -7.3852   11.1718    0.0000 C   0  0  0  0  0  0  0  0  0  0  0  0
   -7.3852   12.6718    0.0000 C   0  0  0  0  0  0  0  0  0  0  0  0
   -8.6842   13.4218    0.0000 C   0  0  0  0  0  0  0  0  0  0  0  0
   -8.6842   14.9218    0.0000 O   0  0  0  0  0  0  0  0  0  0  0  0
   -7.3852   15.6718    0.0000 C   0  0  0  0  0  0  0  0  0  0  0  0
   -7.3852   17.1718    0.0000 C   0  0  0  0  0  0  0  0  0  0  0  0
   -6.0862   17.9218    0.0000 C   0  0  0  0  0  0  0  0  0  0  0  0
   -6.0862   19.4218    0.0000 C   0  0  0  0  0  0  0  0  0  0  0  0
   -7.3852   20.1718    0.0000 C   0  0  0  0  0  0  0  0  0  0  0  0
   -8.6842   19.4218    0.0000 C   0  0  0  0  0  0  0  0  0  0  0  0
   -8.6842   17.9218    0.0000 C   0  0  0  0  0  0  0  0  0  0  0  0
   -9.9833   12.6718    0.0000 C   0  0  0  0  0  0  0  0  0  0  0  0
   -9.9833   11.1718    0.0000 C   0  0  0  0  0  0  0  0  0  0  0  0
   -6.0862    4.4218    0.0000 C   0  0  0  0  0  0  0  0  0  0  0  0
   -6.0006    1.2902    0.0000 N   0  0  0  0  0  0  0  0  0  0  0  0
  1  2  1  0
  2  3  1  0
  3  4  1  0
  4  5  2  0
  5  6  1  0
  6  7  2  0
  7  8  1  0
  8  9  2  0
  9 10  1  0
 10 11  1  0
 11 12  1  0
 12 13  2  0
 13 14  1  0
  5 15  1  0
 15 16  1  0
 16 17  2  0
 17 18  1  0
 18 19  2  0
 19 20  1  0
 20 21  1  0
 21 22  1  0
 22 23  2  0
 22 24  1  0
 24 25  1  0
 25 26  2  0
 26 27  1  0
 27 28  2  0
 28 29  1  0
 29 30  1  0
 30 31  1  0
 31 32  2  0
 32 33  1  0
 33 34  2  0
 34 35  1  0
 35 36  2  0
 28 37  1  0
 37 38  2  0
 20 39  2  0
 15 40  2  0
 40  3  1  0
 14  6  1  0
 39 16  1  0
 14 10  2  0
 38 25  1  0
 36 31  1  0
M  END
>  <Compound_ID>  (873) 
CHEMBL505187

>  <Molecule Name>  (873) 
GSK-718429A

>  <Molecular Weight>  (873) 
528.62

>  <AlogP>  (873) 
7.34

>  <Smiles>  (873) 
CCn1cc(-c2ccnc3[nH]ccc23)c(-c2cccc(NC(=O)Nc3ccc(OCc4ccccc4)cc3)c2)n1

>  <Standard Type>  (873) 
Inhibition

>  <Standard Relation>  (873) 
'='

>  <Standard Units>  (873) 
%

>  <Standard Value>  (873) 
-2.6

>  <Assay ChEMBL ID>  (873) 
CHEMBL1962185

>  <Assay Description>  (873) 
GSK_PKIS: TRKA mean inhibition at 1 uM [Nanosyn]

>  <BAO Format ID>  (873) 
BAO_0000357

>  <BAO Label>  (873) 
single protein format

>  <Assay Organism>  (873) 
None

>  <Target ChEMBL ID>  (873) 
CHEMBL2815

>  <Target Name>  (873) 
Nerve growth factor receptor Trk-A

>  <Target Organism>  (873) 
Homo sapiens

>  <Target Type>  (873) 
SINGLE PROTEIN

>  <Document ChEMBL ID>  (873) 
CHEMBL1961873

>  <Source Description>  (873) 
GSK Published Kinase Inhibitor Set

>  <Document Journal>  (873) 
nan

>  <Document Year>  (873) 
nan

>  <Active>  (873) 
0.0

>  <bits>  (873) 
<rdkit.DataStructs.cDataStructs.ExplicitBitVect object at 0x00000159F53A0660>

>  <Group>  (873) 
G2

$$$$

     RDKit          2D

 44 49  0  0  0  0  0  0  0  0999 V2000
   -4.9294   -3.0000    0.0000 C   0  0  0  0  0  0  0  0  0  0  0  0
   -4.9294   -1.5000    0.0000 O   0  0  0  0  0  0  0  0  0  0  0  0
   -3.6304   -0.7500    0.0000 C   0  0  0  0  0  0  0  0  0  0  0  0
   -2.3313   -1.5000    0.0000 C   0  0  0  0  0  0  0  0  0  0  0  0
   -1.0323   -0.7500    0.0000 C   0  0  0  0  0  0  0  0  0  0  0  0
   -1.0323    0.7500    0.0000 C   0  0  0  0  0  0  0  0  0  0  0  0
   -2.3313    1.5000    0.0000 C   0  0  0  0  0  0  0  0  0  0  0  0
   -3.6304    0.7500    0.0000 C   0  0  0  0  0  0  0  0  0  0  0  0
   -4.9294    1.5000    0.0000 N   0  0  0  0  0  0  0  0  0  0  0  0
   -6.2284    0.7500    0.0000 C   0  0  0  0  0  0  0  0  0  0  0  0
   -6.2284   -0.7500    0.0000 N   0  0  0  0  0  0  0  0  0  0  0  0
   -7.5275   -1.5000    0.0000 C   0  0  0  0  0  0  0  0  0  0  0  0
   -7.5275   -3.0000    0.0000 N   0  0  0  0  0  0  0  0  0  0  0  0
   -8.8265   -3.7500    0.0000 C   0  0  0  0  0  0  0  0  0  0  0  0
  -10.1256   -3.0000    0.0000 C   0  0  0  0  0  0  0  0  0  0  0  0
  -11.4246   -3.7500    0.0000 C   0  0  0  0  0  0  0  0  0  0  0  0
  -11.4246   -5.2500    0.0000 C   0  0  0  0  0  0  0  0  0  0  0  0
  -10.1256   -6.0000    0.0000 C   0  0  0  0  0  0  0  0  0  0  0  0
  -10.1256   -7.5000    0.0000 F   0  0  0  0  0  0  0  0  0  0  0  0
   -8.8265   -5.2500    0.0000 C   0  0  0  0  0  0  0  0  0  0  0  0
   -7.5275   -6.0000    0.0000 C   0  0  0  0  0  0  0  0  0  0  0  0
   -6.2284   -5.2500    0.0000 N   0  0  0  0  0  0  0  0  0  0  0  0
   -7.5275   -7.5000    0.0000 O   0  0  0  0  0  0  0  0  0  0  0  0
   -8.8265   -0.7500    0.0000 C   0  0  0  0  0  0  0  0  0  0  0  0
  -10.2531   -1.2135    0.0000 C   0  0  0  0  0  0  0  0  0  0  0  0
  -11.1348    0.0000    0.0000 C   0  0  0  0  0  0  0  0  0  0  0  0
  -10.2531    1.2135    0.0000 N   0  0  0  0  0  0  0  0  0  0  0  0
   -8.8265    0.7500    0.0000 C   0  0  0  0  0  0  0  0  0  0  0  0
   -7.5275    1.5000    0.0000 N   0  0  0  0  0  0  0  0  0  0  0  0
    0.3943    1.2135    0.0000 N   0  0  0  0  0  0  0  0  0  0  0  0
    0.8578    2.6401    0.0000 C   0  0  0  0  0  0  0  0  0  0  0  0
   -0.1459    3.7548    0.0000 O   0  0  0  0  0  0  0  0  0  0  0  0
    2.3250    2.9520    0.0000 C   0  0  0  0  0  0  0  0  0  0  0  0
    2.7886    4.3786    0.0000 N   0  0  0  0  0  0  0  0  0  0  0  0
    4.2558    4.6904    0.0000 C   0  0  0  0  0  0  0  0  0  0  0  0
    4.7193    6.1170    0.0000 C   0  0  0  0  0  0  0  0  0  0  0  0
    3.7156    7.2317    0.0000 N   0  0  0  0  0  0  0  0  0  0  0  0
    4.1791    8.6583    0.0000 C   0  0  0  0  0  0  0  0  0  0  0  0
    5.6464    8.9702    0.0000 C   0  0  0  0  0  0  0  0  0  0  0  0
    3.1755    9.7730    0.0000 C   0  0  0  0  0  0  0  0  0  0  0  0
    2.2484    6.9199    0.0000 C   0  0  0  0  0  0  0  0  0  0  0  0
    1.7849    5.4933    0.0000 C   0  0  0  0  0  0  0  0  0  0  0  0
    1.2760    0.0000    0.0000 C   0  0  0  0  0  0  0  0  0  0  0  0
    0.3943   -1.2135    0.0000 C   0  0  0  0  0  0  0  0  0  0  0  0
  1  2  1  0
  2  3  1  0
  3  4  2  0
  4  5  1  0
  5  6  2  0
  6  7  1  0
  7  8  2  0
  8  9  1  0
  9 10  1  0
 10 11  2  0
 11 12  1  0
 12 13  1  0
 13 14  1  0
 14 15  2  0
 15 16  1  0
 16 17  2  0
 17 18  1  0
 18 19  1  0
 18 20  2  0
 20 21  1  0
 21 22  1  0
 21 23  2  0
 12 24  2  0
 24 25  1  0
 25 26  2  0
 26 27  1  0
 27 28  1  0
 28 29  2  0
  6 30  1  0
 30 31  1  0
 31 32  2  0
 31 33  1  0
 33 34  1  0
 34 35  1  0
 35 36  1  0
 36 37  1  0
 37 38  1  0
 38 39  1  0
 38 40  1  0
 37 41  1  0
 41 42  1  0
 30 43  1  0
 43 44  1  0
  8  3  1  0
 29 10  1  0
 42 34  1  0
 44  5  1  0
 20 14  1  0
 28 24  1  0
M  END
>  <Compound_ID>  (874) 
CHEMBL505915

>  <Molecule Name>  (874) 
GSK-1751853A

>  <Molecular Weight>  (874) 
601.69

>  <AlogP>  (874) 
3.61

>  <Smiles>  (874) 
COc1cc2c(cc1Nc1nc(Nc3cccc(F)c3C(N)=O)c3cc[nH]c3n1)N(C(=O)CN1CCN(C(C)C)CC1)CC2

>  <Standard Type>  (874) 
Inhibition

>  <Standard Relation>  (874) 
'='

>  <Standard Units>  (874) 
%

>  <Standard Value>  (874) 
0.01

>  <Assay ChEMBL ID>  (874) 
CHEMBL1962185

>  <Assay Description>  (874) 
GSK_PKIS: TRKA mean inhibition at 1 uM [Nanosyn]

>  <BAO Format ID>  (874) 
BAO_0000357

>  <BAO Label>  (874) 
single protein format

>  <Assay Organism>  (874) 
None

>  <Target ChEMBL ID>  (874) 
CHEMBL2815

>  <Target Name>  (874) 
Nerve growth factor receptor Trk-A

>  <Target Organism>  (874) 
Homo sapiens

>  <Target Type>  (874) 
SINGLE PROTEIN

>  <Document ChEMBL ID>  (874) 
CHEMBL1961873

>  <Source Description>  (874) 
GSK Published Kinase Inhibitor Set

>  <Document Journal>  (874) 
nan

>  <Document Year>  (874) 
nan

>  <Active>  (874) 
0.0

>  <bits>  (874) 
<rdkit.DataStructs.cDataStructs.ExplicitBitVect object at 0x00000159F53A23B0>

>  <Group>  (874) 
G2

$$$$

     RDKit          2D

 34 37  0  0  0  0  0  0  0  0999 V2000
   -2.5981   -8.1073    0.0000 C   0  0  0  0  0  0  0  0  0  0  0  0
   -1.2990   -7.3573    0.0000 O   0  0  0  0  0  0  0  0  0  0  0  0
   -1.2990   -5.8573    0.0000 C   0  0  0  0  0  0  0  0  0  0  0  0
   -2.5981   -5.1073    0.0000 O   0  0  0  0  0  0  0  0  0  0  0  0
   -0.0000   -5.1073    0.0000 N   0  0  0  0  0  0  0  0  0  0  0  0
   -0.0000   -3.6073    0.0000 C   0  0  0  0  0  0  0  0  0  0  0  0
    1.2135   -2.7256    0.0000 N   0  0  0  0  0  0  0  0  0  0  0  0
    0.7500   -1.2990    0.0000 C   0  0  0  0  0  0  0  0  0  0  0  0
    1.5000    0.0000    0.0000 C   0  0  0  0  0  0  0  0  0  0  0  0
    0.7500    1.2990    0.0000 C   0  0  0  0  0  0  0  0  0  0  0  0
    1.5000    2.5981    0.0000 O   0  0  0  0  0  0  0  0  0  0  0  0
    3.0000    2.5981    0.0000 C   0  0  0  0  0  0  0  0  0  0  0  0
    3.7500    1.2990    0.0000 C   0  0  0  0  0  0  0  0  0  0  0  0
    5.2500    1.2990    0.0000 C   0  0  0  0  0  0  0  0  0  0  0  0
    6.0000    2.5981    0.0000 C   0  0  0  0  0  0  0  0  0  0  0  0
    7.5000    2.5981    0.0000 N   0  0  0  0  0  0  0  0  0  0  0  0
    8.2500    1.2990    0.0000 C   0  0  0  0  0  0  0  0  0  0  0  0
    7.5000   -0.0000    0.0000 O   0  0  0  0  0  0  0  0  0  0  0  0
    9.7500    1.2990    0.0000 N   0  0  0  0  0  0  0  0  0  0  0  0
   10.5000   -0.0000    0.0000 C   0  0  0  0  0  0  0  0  0  0  0  0
    9.7500   -1.2990    0.0000 C   0  0  0  0  0  0  0  0  0  0  0  0
   10.5000   -2.5981    0.0000 C   0  0  0  0  0  0  0  0  0  0  0  0
   12.0000   -2.5981    0.0000 C   0  0  0  0  0  0  0  0  0  0  0  0
   12.7500   -1.2990    0.0000 C   0  0  0  0  0  0  0  0  0  0  0  0
   14.2500   -1.2990    0.0000 C   0  0  0  0  0  0  0  0  0  0  0  0
   15.0000   -0.0000    0.0000 O   0  0  0  0  0  0  0  0  0  0  0  0
   15.0000   -2.5981    0.0000 O   0  0  0  0  0  0  0  0  0  0  0  0
   12.0000   -0.0000    0.0000 C   0  0  0  0  0  0  0  0  0  0  0  0
    5.2500    3.8971    0.0000 C   0  0  0  0  0  0  0  0  0  0  0  0
    3.7500    3.8971    0.0000 C   0  0  0  0  0  0  0  0  0  0  0  0
   -0.7500    1.2990    0.0000 C   0  0  0  0  0  0  0  0  0  0  0  0
   -1.5000    0.0000    0.0000 C   0  0  0  0  0  0  0  0  0  0  0  0
   -0.7500   -1.2990    0.0000 C   0  0  0  0  0  0  0  0  0  0  0  0
   -1.2135   -2.7256    0.0000 N   0  0  0  0  0  0  0  0  0  0  0  0
  1  2  1  0
  2  3  1  0
  3  4  2  0
  3  5  1  0
  5  6  1  0
  6  7  2  0
  7  8  1  0
  8  9  2  0
  9 10  1  0
 10 11  1  0
 11 12  1  0
 12 13  2  0
 13 14  1  0
 14 15  2  0
 15 16  1  0
 16 17  1  0
 17 18  2  0
 17 19  1  0
 19 20  1  0
 20 21  2  0
 21 22  1  0
 22 23  2  0
 23 24  1  0
 24 25  1  0
 25 26  2  0
 25 27  1  0
 24 28  2  0
 15 29  1  0
 29 30  2  0
 10 31  2  0
 31 32  1  0
 32 33  2  0
 33 34  1  0
 34  6  1  0
 33  8  1  0
 30 12  1  0
 28 20  1  0
M  END
>  <Compound_ID>  (875) 
CHEMBL1909373

>  <Molecule Name>  (875) 
GW701427A

>  <Molecular Weight>  (875) 
497.9

>  <AlogP>  (875) 
4.88

>  <Smiles>  (875) 
COC(=O)Nc1nc2cc(Oc3ccc(NC(=O)Nc4cccc(C(=O)O)c4)cc3)ccc2[nH]1

>  <Standard Type>  (875) 
Inhibition

>  <Standard Relation>  (875) 
'='

>  <Standard Units>  (875) 
%

>  <Standard Value>  (875) 
1.98

>  <Assay ChEMBL ID>  (875) 
CHEMBL1962184

>  <Assay Description>  (875) 
GSK_PKIS: TRKA mean inhibition at 0.1 uM [Nanosyn]

>  <BAO Format ID>  (875) 
BAO_0000357

>  <BAO Label>  (875) 
single protein format

>  <Assay Organism>  (875) 
None

>  <Target ChEMBL ID>  (875) 
CHEMBL2815

>  <Target Name>  (875) 
Nerve growth factor receptor Trk-A

>  <Target Organism>  (875) 
Homo sapiens

>  <Target Type>  (875) 
SINGLE PROTEIN

>  <Document ChEMBL ID>  (875) 
CHEMBL1961873

>  <Source Description>  (875) 
GSK Published Kinase Inhibitor Set

>  <Document Journal>  (875) 
nan

>  <Document Year>  (875) 
nan

>  <Active>  (875) 
0.0

>  <bits>  (875) 
<rdkit.DataStructs.cDataStructs.ExplicitBitVect object at 0x00000159F53A0BA0>

>  <Group>  (875) 
G2

$$$$

     RDKit          2D

 24 26  0  0  0  0  0  0  0  0999 V2000
    3.7500   -1.2990    0.0000 C   0  0  0  0  0  0  0  0  0  0  0  0
    3.0000    0.0000    0.0000 O   0  0  0  0  0  0  0  0  0  0  0  0
    1.5000    0.0000    0.0000 C   0  0  0  0  0  0  0  0  0  0  0  0
    0.7500   -1.2990    0.0000 C   0  0  0  0  0  0  0  0  0  0  0  0
   -0.7500   -1.2990    0.0000 C   0  0  0  0  0  0  0  0  0  0  0  0
   -1.5000    0.0000    0.0000 C   0  0  0  0  0  0  0  0  0  0  0  0
   -2.9672    0.3119    0.0000 C   0  0  0  0  0  0  0  0  0  0  0  0
   -4.1807   -0.5698    0.0000 C   0  0  0  0  0  0  0  0  0  0  0  0
   -5.5511    0.0403    0.0000 C   0  0  0  0  0  0  0  0  0  0  0  0
   -5.7079    1.5321    0.0000 N   0  0  0  0  0  0  0  0  0  0  0  0
   -4.4943    2.4138    0.0000 C   0  0  0  0  0  0  0  0  0  0  0  0
   -4.6511    3.9055    0.0000 C   0  0  0  0  0  0  0  0  0  0  0  0
   -4.8079    5.3973    0.0000 F   0  0  0  0  0  0  0  0  0  0  0  0
   -6.1429    3.7487    0.0000 F   0  0  0  0  0  0  0  0  0  0  0  0
   -3.1593    4.0623    0.0000 F   0  0  0  0  0  0  0  0  0  0  0  0
   -3.1240    1.8037    0.0000 C   0  0  0  0  0  0  0  0  0  0  0  0
   -1.7537    2.4138    0.0000 N   0  0  0  0  0  0  0  0  0  0  0  0
   -1.4418    3.8810    0.0000 C   0  0  0  0  0  0  0  0  0  0  0  0
   -0.0152    4.3445    0.0000 C   0  0  0  0  0  0  0  0  0  0  0  0
    0.2966    5.8117    0.0000 C   0  0  0  0  0  0  0  0  0  0  0  0
    1.7232    6.2752    0.0000 C   0  0  0  0  0  0  0  0  0  0  0  0
    2.0351    7.7425    0.0000 N   0  0  0  0  0  0  0  0  0  0  0  0
   -0.7500    1.2990    0.0000 C   0  0  0  0  0  0  0  0  0  0  0  0
    0.7500    1.2990    0.0000 C   0  0  0  0  0  0  0  0  0  0  0  0
  1  2  1  0
  2  3  1  0
  3  4  2  0
  4  5  1  0
  5  6  2  0
  6  7  1  0
  7  8  2  0
  8  9  1  0
  9 10  2  0
 10 11  1  0
 11 12  1  0
 12 13  1  0
 12 14  1  0
 12 15  1  0
 11 16  2  0
 16 17  1  0
 17 18  1  0
 18 19  1  0
 19 20  1  0
 20 21  1  0
 21 22  1  0
 17 23  1  0
 23 24  2  0
 24  3  1  0
 23  6  1  0
 16  7  1  0
M  END
>  <Compound_ID>  (876) 
CHEMBL2012574

>  <Molecule Name>  (876) 
nan

>  <Molecular Weight>  (876) 
337.35

>  <AlogP>  (876) 
3.96

>  <Smiles>  (876) 
COc1ccc2c3ccnc(C(F)(F)F)c3n(CCCCN)c2c1

>  <Standard Type>  (876) 
Inhibition

>  <Standard Relation>  (876) 
'='

>  <Standard Units>  (876) 
%

>  <Standard Value>  (876) 
8.0

>  <Assay ChEMBL ID>  (876) 
CHEMBL2014513

>  <Assay Description>  (876) 
Inhibition of TRKA at 10 uM

>  <BAO Format ID>  (876) 
BAO_0000357

>  <BAO Label>  (876) 
single protein format

>  <Assay Organism>  (876) 
None

>  <Target ChEMBL ID>  (876) 
CHEMBL2815

>  <Target Name>  (876) 
Nerve growth factor receptor Trk-A

>  <Target Organism>  (876) 
Homo sapiens

>  <Target Type>  (876) 
SINGLE PROTEIN

>  <Document ChEMBL ID>  (876) 
CHEMBL2010722

>  <Source Description>  (876) 
Scientific Literature

>  <Document Journal>  (876) 
Bioorg Med Chem Lett

>  <Document Year>  (876) 
2012.0

>  <Active>  (876) 
0.0

>  <bits>  (876) 
<rdkit.DataStructs.cDataStructs.ExplicitBitVect object at 0x00000159F53A3450>

>  <Group>  (876) 
G2

$$$$

     RDKit          2D

 30 33  0  0  0  0  0  0  0  0999 V2000
    5.2500   -1.2990    0.0000 C   0  0  0  0  0  0  0  0  0  0  0  0
    3.7500   -1.2990    0.0000 N   0  0  0  0  0  0  0  0  0  0  0  0
    3.0000   -2.5981    0.0000 C   0  0  0  0  0  0  0  0  0  0  0  0
    3.0000    0.0000    0.0000 C   0  0  0  0  0  0  0  0  0  0  0  0
    3.7500    1.2990    0.0000 O   0  0  0  0  0  0  0  0  0  0  0  0
    1.5000    0.0000    0.0000 C   0  0  0  0  0  0  0  0  0  0  0  0
    0.7500   -1.2990    0.0000 C   0  0  0  0  0  0  0  0  0  0  0  0
   -0.7500   -1.2990    0.0000 C   0  0  0  0  0  0  0  0  0  0  0  0
   -1.5000    0.0000    0.0000 C   0  0  0  0  0  0  0  0  0  0  0  0
   -3.0000    0.0000    0.0000 O   0  0  0  0  0  0  0  0  0  0  0  0
   -3.7500    1.2990    0.0000 C   0  0  0  0  0  0  0  0  0  0  0  0
   -3.0000    2.5981    0.0000 N   0  0  0  0  0  0  0  0  0  0  0  0
   -3.7500    3.8971    0.0000 C   0  0  0  0  0  0  0  0  0  0  0  0
   -3.0000    5.1962    0.0000 C   0  0  0  0  0  0  0  0  0  0  0  0
   -3.6101    6.5665    0.0000 C   0  0  0  0  0  0  0  0  0  0  0  0
   -2.4954    7.5702    0.0000 N   0  0  0  0  0  0  0  0  0  0  0  0
   -1.1963    6.8202    0.0000 C   0  0  0  0  0  0  0  0  0  0  0  0
    0.1740    7.4303    0.0000 N   0  0  0  0  0  0  0  0  0  0  0  0
   -1.5082    5.3529    0.0000 S   0  0  0  0  0  0  0  0  0  0  0  0
   -5.2500    3.8971    0.0000 N   0  0  0  0  0  0  0  0  0  0  0  0
   -6.0000    2.5981    0.0000 C   0  0  0  0  0  0  0  0  0  0  0  0
   -7.5000    2.5981    0.0000 N   0  0  0  0  0  0  0  0  0  0  0  0
   -8.2500    3.8971    0.0000 C   0  0  0  0  0  0  0  0  0  0  0  0
   -9.7500    3.8971    0.0000 C   0  0  0  0  0  0  0  0  0  0  0  0
  -10.5000    2.5981    0.0000 O   0  0  0  0  0  0  0  0  0  0  0  0
   -9.7500    1.2990    0.0000 C   0  0  0  0  0  0  0  0  0  0  0  0
   -8.2500    1.2990    0.0000 C   0  0  0  0  0  0  0  0  0  0  0  0
   -5.2500    1.2990    0.0000 N   0  0  0  0  0  0  0  0  0  0  0  0
   -0.7500    1.2990    0.0000 C   0  0  0  0  0  0  0  0  0  0  0  0
    0.7500    1.2990    0.0000 C   0  0  0  0  0  0  0  0  0  0  0  0
  1  2  1  0
  2  3  1  0
  2  4  1  0
  4  5  2  0
  4  6  1  0
  6  7  2  0
  7  8  1  0
  8  9  2  0
  9 10  1  0
 10 11  1  0
 11 12  2  0
 12 13  1  0
 13 14  1  0
 14 15  2  0
 15 16  1  0
 16 17  2  0
 17 18  1  0
 17 19  1  0
 13 20  2  0
 20 21  1  0
 21 22  1  0
 22 23  1  0
 23 24  1  0
 24 25  1  0
 25 26  1  0
 26 27  1  0
 21 28  2  0
  9 29  1  0
 29 30  2  0
 30  6  1  0
 28 11  1  0
 19 14  1  0
 27 22  1  0
M  END
>  <Compound_ID>  (877) 
CHEMBL4782133

>  <Molecule Name>  (877) 
nan

>  <Molecular Weight>  (877) 
427.49

>  <AlogP>  (877) 
1.91

>  <Smiles>  (877) 
CN(C)C(=O)c1ccc(Oc2nc(-c3cnc(N)s3)nc(N3CCOCC3)n2)cc1

>  <Standard Type>  (877) 
Inhibition

>  <Standard Relation>  (877) 
'='

>  <Standard Units>  (877) 
%

>  <Standard Value>  (877) 
3.0

>  <Assay ChEMBL ID>  (877) 
CHEMBL4701782

>  <Assay Description>  (877) 
Inhibition of human TRKA at 1 uM using fluorescently labeled peptide substrate measured after 3 hrs by microfluidic mobility shift assay relative to control

>  <BAO Format ID>  (877) 
BAO_0000357

>  <BAO Label>  (877) 
single protein format

>  <Assay Organism>  (877) 
Homo sapiens

>  <Target ChEMBL ID>  (877) 
CHEMBL2815

>  <Target Name>  (877) 
Nerve growth factor receptor Trk-A

>  <Target Organism>  (877) 
Homo sapiens

>  <Target Type>  (877) 
SINGLE PROTEIN

>  <Document ChEMBL ID>  (877) 
CHEMBL4699485

>  <Source Description>  (877) 
Scientific Literature

>  <Document Journal>  (877) 
J Med Chem

>  <Document Year>  (877) 
2020.0

>  <Active>  (877) 
0.0

>  <bits>  (877) 
<rdkit.DataStructs.cDataStructs.ExplicitBitVect object at 0x00000159F53A1CB0>

>  <Group>  (877) 
G2

$$$$

     RDKit          2D

 29 31  0  0  0  0  0  0  0  0999 V2000
    7.5000   -2.5981    0.0000 C   0  0  0  0  0  0  0  0  0  0  0  0
    6.0000   -2.5981    0.0000 C   0  0  0  0  0  0  0  0  0  0  0  0
    5.2500   -3.8971    0.0000 C   0  0  0  0  0  0  0  0  0  0  0  0
    5.2500   -1.2990    0.0000 C   0  0  0  0  0  0  0  0  0  0  0  0
    3.7500   -1.2990    0.0000 O   0  0  0  0  0  0  0  0  0  0  0  0
    3.0000    0.0000    0.0000 C   0  0  0  0  0  0  0  0  0  0  0  0
    3.7500    1.2990    0.0000 O   0  0  0  0  0  0  0  0  0  0  0  0
    1.5000    0.0000    0.0000 C   0  0  0  0  0  0  0  0  0  0  0  0
    0.7500   -1.2990    0.0000 C   0  0  0  0  0  0  0  0  0  0  0  0
   -0.7500   -1.2990    0.0000 C   0  0  0  0  0  0  0  0  0  0  0  0
   -1.5000    0.0000    0.0000 C   0  0  0  0  0  0  0  0  0  0  0  0
   -0.7500    1.2990    0.0000 C   0  0  0  0  0  0  0  0  0  0  0  0
    0.7500    1.2990    0.0000 C   0  0  0  0  0  0  0  0  0  0  0  0
   -1.7537    2.4138    0.0000 C   0  0  0  0  0  0  0  0  0  0  0  0
   -1.4418    3.8810    0.0000 C   0  0  0  0  0  0  0  0  0  0  0  0
   -2.5565    4.8847    0.0000 N   0  0  0  0  0  0  0  0  0  0  0  0
   -2.2447    6.3519    0.0000 C   0  0  0  0  0  0  0  0  0  0  0  0
   -0.8181    6.8154    0.0000 C   0  0  0  0  0  0  0  0  0  0  0  0
   -0.5062    8.2826    0.0000 C   0  0  0  0  0  0  0  0  0  0  0  0
   -1.6209    9.2863    0.0000 C   0  0  0  0  0  0  0  0  0  0  0  0
   -1.3091   10.7536    0.0000 S   0  0  0  0  0  0  0  0  0  0  0  0
   -0.9972   12.2208    0.0000 N   0  0  0  0  0  0  0  0  0  0  0  0
    0.1581   10.4417    0.0000 O   0  0  0  0  0  0  0  0  0  0  0  0
   -2.7763   11.0654    0.0000 O   0  0  0  0  0  0  0  0  0  0  0  0
   -3.0475    8.8228    0.0000 C   0  0  0  0  0  0  0  0  0  0  0  0
   -3.3594    7.3556    0.0000 C   0  0  0  0  0  0  0  0  0  0  0  0
   -3.1240    1.8037    0.0000 C   0  0  0  0  0  0  0  0  0  0  0  0
   -4.4231    2.5537    0.0000 O   0  0  0  0  0  0  0  0  0  0  0  0
   -2.9672    0.3119    0.0000 N   0  0  0  0  0  0  0  0  0  0  0  0
  1  2  1  0
  2  3  1  0
  2  4  1  0
  4  5  1  0
  5  6  1  0
  6  7  2  0
  6  8  1  0
  8  9  2  0
  9 10  1  0
 10 11  2  0
 11 12  1  0
 12 13  2  0
 12 14  1  0
 14 15  2  0
 15 16  1  0
 16 17  1  0
 17 18  2  0
 18 19  1  0
 19 20  2  0
 20 21  1  0
 21 22  1  0
 21 23  2  0
 21 24  2  0
 20 25  1  0
 25 26  2  0
 14 27  1  0
 27 28  2  0
 27 29  1  0
 13  8  1  0
 26 17  1  0
 29 11  1  0
M  END
>  <Compound_ID>  (878) 
CHEMBL269883

>  <Molecule Name>  (878) 
GW416981X

>  <Molecular Weight>  (878) 
415.47

>  <AlogP>  (878) 
2.55

>  <Smiles>  (878) 
CC(C)COC(=O)c1ccc2c(c1)/C(=C/Nc1ccc(S(N)(=O)=O)cc1)C(=O)N2

>  <Standard Type>  (878) 
Inhibition

>  <Standard Relation>  (878) 
'='

>  <Standard Units>  (878) 
%

>  <Standard Value>  (878) 
2.03

>  <Assay ChEMBL ID>  (878) 
CHEMBL1962184

>  <Assay Description>  (878) 
GSK_PKIS: TRKA mean inhibition at 0.1 uM [Nanosyn]

>  <BAO Format ID>  (878) 
BAO_0000357

>  <BAO Label>  (878) 
single protein format

>  <Assay Organism>  (878) 
None

>  <Target ChEMBL ID>  (878) 
CHEMBL2815

>  <Target Name>  (878) 
Nerve growth factor receptor Trk-A

>  <Target Organism>  (878) 
Homo sapiens

>  <Target Type>  (878) 
SINGLE PROTEIN

>  <Document ChEMBL ID>  (878) 
CHEMBL1961873

>  <Source Description>  (878) 
GSK Published Kinase Inhibitor Set

>  <Document Journal>  (878) 
nan

>  <Document Year>  (878) 
nan

>  <Active>  (878) 
0.0

>  <bits>  (878) 
<rdkit.DataStructs.cDataStructs.ExplicitBitVect object at 0x00000159F53A00B0>

>  <Group>  (878) 
G2

$$$$

     RDKit          2D

 31 35  0  0  0  0  0  0  0  0999 V2000
   12.7500   -1.2990    0.0000 F   0  0  0  0  0  0  0  0  0  0  0  0
   12.0000   -2.5981    0.0000 C   0  0  0  0  0  0  0  0  0  0  0  0
   12.7500   -3.8971    0.0000 C   0  0  0  0  0  0  0  0  0  0  0  0
   12.0000   -5.1962    0.0000 C   0  0  0  0  0  0  0  0  0  0  0  0
   10.5000   -5.1962    0.0000 C   0  0  0  0  0  0  0  0  0  0  0  0
    9.7500   -3.8971    0.0000 C   0  0  0  0  0  0  0  0  0  0  0  0
    8.2500   -3.8971    0.0000 C   0  0  0  0  0  0  0  0  0  0  0  0
    7.5000   -2.5981    0.0000 O   0  0  0  0  0  0  0  0  0  0  0  0
    6.0000   -2.5981    0.0000 C   0  0  0  0  0  0  0  0  0  0  0  0
    5.2500   -1.2990    0.0000 C   0  0  0  0  0  0  0  0  0  0  0  0
    3.7500   -1.2990    0.0000 C   0  0  0  0  0  0  0  0  0  0  0  0
    3.0000   -2.5981    0.0000 C   0  0  0  0  0  0  0  0  0  0  0  0
    1.5000   -2.5981    0.0000 N   0  0  0  0  0  0  0  0  0  0  0  0
    0.7500   -1.2990    0.0000 C   0  0  0  0  0  0  0  0  0  0  0  0
    1.5000    0.0000    0.0000 N   0  0  0  0  0  0  0  0  0  0  0  0
    0.7500    1.2990    0.0000 C   0  0  0  0  0  0  0  0  0  0  0  0
   -0.7500    1.2990    0.0000 N   0  0  0  0  0  0  0  0  0  0  0  0
   -1.5000    0.0000    0.0000 C   0  0  0  0  0  0  0  0  0  0  0  0
   -2.9672   -0.3119    0.0000 S   0  0  0  0  0  0  0  0  0  0  0  0
   -3.1240   -1.8037    0.0000 C   0  0  0  0  0  0  0  0  0  0  0  0
   -4.4231   -2.5537    0.0000 C   0  0  0  0  0  0  0  0  0  0  0  0
   -4.5798   -4.0454    0.0000 C   0  0  0  0  0  0  0  0  0  0  0  0
   -6.0471   -4.3573    0.0000 C   0  0  0  0  0  0  0  0  0  0  0  0
   -6.7971   -3.0583    0.0000 C   0  0  0  0  0  0  0  0  0  0  0  0
   -5.7934   -1.9435    0.0000 O   0  0  0  0  0  0  0  0  0  0  0  0
   -1.7537   -2.4138    0.0000 C   0  0  0  0  0  0  0  0  0  0  0  0
   -0.7500   -1.2990    0.0000 C   0  0  0  0  0  0  0  0  0  0  0  0
    3.7500   -3.8971    0.0000 C   0  0  0  0  0  0  0  0  0  0  0  0
    5.2500   -3.8971    0.0000 C   0  0  0  0  0  0  0  0  0  0  0  0
    6.0000   -5.1962    0.0000 Cl  0  0  0  0  0  0  0  0  0  0  0  0
   10.5000   -2.5981    0.0000 C   0  0  0  0  0  0  0  0  0  0  0  0
  1  2  1  0
  2  3  2  0
  3  4  1  0
  4  5  2  0
  5  6  1  0
  6  7  1  0
  7  8  1  0
  8  9  1  0
  9 10  2  0
 10 11  1  0
 11 12  2  0
 12 13  1  0
 13 14  1  0
 14 15  2  0
 15 16  1  0
 16 17  2  0
 17 18  1  0
 18 19  1  0
 19 20  1  0
 20 21  1  0
 21 22  2  0
 22 23  1  0
 23 24  2  0
 24 25  1  0
 20 26  2  0
 26 27  1  0
 12 28  1  0
 28 29  2  0
 29 30  1  0
  6 31  2  0
 31  2  1  0
 29  9  1  0
 27 14  1  0
 27 18  2  0
 25 21  1  0
M  END
>  <Compound_ID>  (879) 
CHEMBL514938

>  <Molecule Name>  (879) 
GSK-969786A

>  <Molecular Weight>  (879) 
451.91

>  <AlogP>  (879) 
7.07

>  <Smiles>  (879) 
Fc1cccc(COc2ccc(Nc3ncnc4sc(-c5ccco5)cc34)cc2Cl)c1

>  <Standard Type>  (879) 
Inhibition

>  <Standard Relation>  (879) 
'='

>  <Standard Units>  (879) 
%

>  <Standard Value>  (879) 
0.66

>  <Assay ChEMBL ID>  (879) 
CHEMBL1962185

>  <Assay Description>  (879) 
GSK_PKIS: TRKA mean inhibition at 1 uM [Nanosyn]

>  <BAO Format ID>  (879) 
BAO_0000357

>  <BAO Label>  (879) 
single protein format

>  <Assay Organism>  (879) 
None

>  <Target ChEMBL ID>  (879) 
CHEMBL2815

>  <Target Name>  (879) 
Nerve growth factor receptor Trk-A

>  <Target Organism>  (879) 
Homo sapiens

>  <Target Type>  (879) 
SINGLE PROTEIN

>  <Document ChEMBL ID>  (879) 
CHEMBL1961873

>  <Source Description>  (879) 
GSK Published Kinase Inhibitor Set

>  <Document Journal>  (879) 
nan

>  <Document Year>  (879) 
nan

>  <Active>  (879) 
0.0

>  <bits>  (879) 
<rdkit.DataStructs.cDataStructs.ExplicitBitVect object at 0x00000159F53A06D0>

>  <Group>  (879) 
G2

$$$$

     RDKit          2D

 33 36  0  0  0  0  0  0  0  0999 V2000
   -3.7500   -6.4952    0.0000 C   0  0  0  0  0  0  0  0  0  0  0  0
   -3.0000   -5.1962    0.0000 O   0  0  0  0  0  0  0  0  0  0  0  0
   -1.5000   -5.1962    0.0000 C   0  0  0  0  0  0  0  0  0  0  0  0
   -0.7500   -3.8971    0.0000 C   0  0  0  0  0  0  0  0  0  0  0  0
    0.7500   -3.8971    0.0000 C   0  0  0  0  0  0  0  0  0  0  0  0
    1.5000   -2.5981    0.0000 N   0  0  0  0  0  0  0  0  0  0  0  0
    0.7500   -1.2990    0.0000 C   0  0  0  0  0  0  0  0  0  0  0  0
    1.5000    0.0000    0.0000 N   0  0  0  0  0  0  0  0  0  0  0  0
    0.7500    1.2990    0.0000 C   0  0  0  0  0  0  0  0  0  0  0  0
   -0.7500    1.2990    0.0000 C   0  0  0  0  0  0  0  0  0  0  0  0
   -1.7537    2.4138    0.0000 C   0  0  0  0  0  0  0  0  0  0  0  0
   -1.4418    3.8810    0.0000 C   0  0  0  0  0  0  0  0  0  0  0  0
   -3.1240    1.8037    0.0000 N   0  0  0  0  0  0  0  0  0  0  0  0
   -2.9672    0.3119    0.0000 C   0  0  0  0  0  0  0  0  0  0  0  0
   -4.0819   -0.6918    0.0000 C   0  0  0  0  0  0  0  0  0  0  0  0
   -3.7701   -2.1590    0.0000 C   0  0  0  0  0  0  0  0  0  0  0  0
   -4.8848   -3.1627    0.0000 C   0  0  0  0  0  0  0  0  0  0  0  0
   -6.3114   -2.6992    0.0000 C   0  0  0  0  0  0  0  0  0  0  0  0
   -6.6232   -1.2320    0.0000 C   0  0  0  0  0  0  0  0  0  0  0  0
   -8.0498   -0.7685    0.0000 C   0  0  0  0  0  0  0  0  0  0  0  0
   -9.4764   -0.3049    0.0000 F   0  0  0  0  0  0  0  0  0  0  0  0
   -8.5134   -2.1951    0.0000 F   0  0  0  0  0  0  0  0  0  0  0  0
   -7.5863    0.6581    0.0000 F   0  0  0  0  0  0  0  0  0  0  0  0
   -5.5085   -0.2283    0.0000 C   0  0  0  0  0  0  0  0  0  0  0  0
   -1.5000    0.0000    0.0000 N   0  0  0  0  0  0  0  0  0  0  0  0
   -0.7500   -1.2990    0.0000 N   0  0  0  0  0  0  0  0  0  0  0  0
    1.5000   -5.1962    0.0000 C   0  0  0  0  0  0  0  0  0  0  0  0
    0.7500   -6.4952    0.0000 C   0  0  0  0  0  0  0  0  0  0  0  0
    1.5000   -7.7942    0.0000 O   0  0  0  0  0  0  0  0  0  0  0  0
    0.7500   -9.0933    0.0000 C   0  0  0  0  0  0  0  0  0  0  0  0
   -0.7500   -6.4952    0.0000 C   0  0  0  0  0  0  0  0  0  0  0  0
   -1.5000   -7.7942    0.0000 O   0  0  0  0  0  0  0  0  0  0  0  0
   -0.7500   -9.0933    0.0000 C   0  0  0  0  0  0  0  0  0  0  0  0
  1  2  1  0
  2  3  1  0
  3  4  2  0
  4  5  1  0
  5  6  1  0
  6  7  1  0
  7  8  1  0
  8  9  2  0
  9 10  1  0
 10 11  2  0
 11 12  1  0
 11 13  1  0
 13 14  2  0
 14 15  1  0
 15 16  2  0
 16 17  1  0
 17 18  2  0
 18 19  1  0
 19 20  1  0
 20 21  1  0
 20 22  1  0
 20 23  1  0
 19 24  2  0
 14 25  1  0
 25 26  1  0
  5 27  2  0
 27 28  1  0
 28 29  1  0
 29 30  1  0
 28 31  2  0
 31 32  1  0
 32 33  1  0
 31  3  1  0
 26  7  2  0
 25 10  1  0
 24 15  1  0
M  END
>  <Compound_ID>  (880) 
CHEMBL520037

>  <Molecule Name>  (880) 
GW837331X

>  <Molecular Weight>  (880) 
459.43

>  <AlogP>  (880) 
4.89

>  <Smiles>  (880) 
COc1cc(Nc2ncc3c(C)nc(-c4cccc(C(F)(F)F)c4)n3n2)cc(OC)c1OC

>  <Standard Type>  (880) 
Inhibition

>  <Standard Relation>  (880) 
'='

>  <Standard Units>  (880) 
%

>  <Standard Value>  (880) 
7.83

>  <Assay ChEMBL ID>  (880) 
CHEMBL1962185

>  <Assay Description>  (880) 
GSK_PKIS: TRKA mean inhibition at 1 uM [Nanosyn]

>  <BAO Format ID>  (880) 
BAO_0000357

>  <BAO Label>  (880) 
single protein format

>  <Assay Organism>  (880) 
None

>  <Target ChEMBL ID>  (880) 
CHEMBL2815

>  <Target Name>  (880) 
Nerve growth factor receptor Trk-A

>  <Target Organism>  (880) 
Homo sapiens

>  <Target Type>  (880) 
SINGLE PROTEIN

>  <Document ChEMBL ID>  (880) 
CHEMBL1961873

>  <Source Description>  (880) 
GSK Published Kinase Inhibitor Set

>  <Document Journal>  (880) 
nan

>  <Document Year>  (880) 
nan

>  <Active>  (880) 
0.0

>  <bits>  (880) 
<rdkit.DataStructs.cDataStructs.ExplicitBitVect object at 0x00000159F53A0270>

>  <Group>  (880) 
G2

$$$$

     RDKit          2D

 35 39  0  0  0  0  0  0  0  0999 V2000
    3.0000    0.0000    0.0000 C   0  0  0  0  0  0  0  0  0  0  0  0
    1.5000    0.0000    0.0000 C   0  0  0  0  0  0  0  0  0  0  0  0
    0.7500   -1.2990    0.0000 C   0  0  0  0  0  0  0  0  0  0  0  0
   -0.7500   -1.2990    0.0000 C   0  0  0  0  0  0  0  0  0  0  0  0
   -1.5000    0.0000    0.0000 C   0  0  0  0  0  0  0  0  0  0  0  0
   -3.0000    0.0000    0.0000 N   0  0  0  0  0  0  0  0  0  0  0  0
   -3.7500    1.2990    0.0000 C   0  0  0  0  0  0  0  0  0  0  0  0
   -3.0000    2.5981    0.0000 O   0  0  0  0  0  0  0  0  0  0  0  0
   -5.2500    1.2990    0.0000 C   0  0  0  0  0  0  0  0  0  0  0  0
   -6.0000    2.5981    0.0000 C   0  0  0  0  0  0  0  0  0  0  0  0
   -7.5000    2.5981    0.0000 C   0  0  0  0  0  0  0  0  0  0  0  0
   -8.2500    1.2990    0.0000 N   0  0  0  0  0  0  0  0  0  0  0  0
   -7.5000    0.0000    0.0000 C   0  0  0  0  0  0  0  0  0  0  0  0
   -8.2500   -1.2990    0.0000 N   0  0  0  0  0  0  0  0  0  0  0  0
   -9.7500   -1.2990    0.0000 C   0  0  0  0  0  0  0  0  0  0  0  0
  -10.5000   -2.5981    0.0000 C   0  0  0  0  0  0  0  0  0  0  0  0
   -9.7500   -3.8971    0.0000 O   0  0  0  0  0  0  0  0  0  0  0  0
   -8.2500   -3.8971    0.0000 C   0  0  0  0  0  0  0  0  0  0  0  0
   -7.5000   -2.5981    0.0000 C   0  0  0  0  0  0  0  0  0  0  0  0
   -6.0000    0.0000    0.0000 C   0  0  0  0  0  0  0  0  0  0  0  0
   -0.7500    1.2990    0.0000 C   0  0  0  0  0  0  0  0  0  0  0  0
    0.7500    1.2990    0.0000 C   0  0  0  0  0  0  0  0  0  0  0  0
    1.5000    2.5981    0.0000 C   0  0  0  0  0  0  0  0  0  0  0  0
    3.0000    2.5981    0.0000 C   0  0  0  0  0  0  0  0  0  0  0  0
    3.7500    3.8971    0.0000 C   0  0  0  0  0  0  0  0  0  0  0  0
    3.0000    5.1962    0.0000 C   0  0  0  0  0  0  0  0  0  0  0  0
    3.7500    6.4952    0.0000 C   0  0  0  0  0  0  0  0  0  0  0  0
    3.0000    7.7942    0.0000 O   0  0  0  0  0  0  0  0  0  0  0  0
    5.2500    6.4952    0.0000 N   0  0  0  0  0  0  0  0  0  0  0  0
    6.0000    7.7942    0.0000 C   0  0  0  0  0  0  0  0  0  0  0  0
    7.5000    7.7942    0.0000 C   0  0  0  0  0  0  0  0  0  0  0  0
    8.7990    8.5442    0.0000 C   0  0  0  0  0  0  0  0  0  0  0  0
    8.7990    7.0442    0.0000 C   0  0  0  0  0  0  0  0  0  0  0  0
    1.5000    5.1962    0.0000 C   0  0  0  0  0  0  0  0  0  0  0  0
    0.7500    3.8971    0.0000 C   0  0  0  0  0  0  0  0  0  0  0  0
  1  2  1  0
  2  3  2  0
  3  4  1  0
  4  5  2  0
  5  6  1  0
  6  7  1  0
  7  8  2  0
  7  9  1  0
  9 10  2  0
 10 11  1  0
 11 12  2  0
 12 13  1  0
 13 14  1  0
 14 15  1  0
 15 16  1  0
 16 17  1  0
 17 18  1  0
 18 19  1  0
 13 20  2  0
  5 21  1  0
 21 22  2  0
 22 23  1  0
 23 24  2  0
 24 25  1  0
 25 26  2  0
 26 27  1  0
 27 28  2  0
 27 29  1  0
 29 30  1  0
 30 31  1  0
 31 32  1  0
 32 33  1  0
 26 34  1  0
 34 35  2  0
 22  2  1  0
 35 23  1  0
 20  9  1  0
 33 31  1  0
 19 14  1  0
M  END
>  <Compound_ID>  (881) 
CHEMBL476351

>  <Molecule Name>  (881) 
GW775608X

>  <Molecular Weight>  (881) 
470.57

>  <AlogP>  (881) 
4.29

>  <Smiles>  (881) 
Cc1ccc(NC(=O)c2ccnc(N3CCOCC3)c2)cc1-c1ccc(C(=O)NCC2CC2)cc1

>  <Standard Type>  (881) 
Inhibition

>  <Standard Relation>  (881) 
'='

>  <Standard Units>  (881) 
%

>  <Standard Value>  (881) 
-0.96

>  <Assay ChEMBL ID>  (881) 
CHEMBL1962185

>  <Assay Description>  (881) 
GSK_PKIS: TRKA mean inhibition at 1 uM [Nanosyn]

>  <BAO Format ID>  (881) 
BAO_0000357

>  <BAO Label>  (881) 
single protein format

>  <Assay Organism>  (881) 
None

>  <Target ChEMBL ID>  (881) 
CHEMBL2815

>  <Target Name>  (881) 
Nerve growth factor receptor Trk-A

>  <Target Organism>  (881) 
Homo sapiens

>  <Target Type>  (881) 
SINGLE PROTEIN

>  <Document ChEMBL ID>  (881) 
CHEMBL1961873

>  <Source Description>  (881) 
GSK Published Kinase Inhibitor Set

>  <Document Journal>  (881) 
nan

>  <Document Year>  (881) 
nan

>  <Active>  (881) 
0.0

>  <bits>  (881) 
<rdkit.DataStructs.cDataStructs.ExplicitBitVect object at 0x00000159F53A13F0>

>  <Group>  (881) 
G2

$$$$

     RDKit          2D

 28 31  0  0  0  0  0  0  0  0999 V2000
    3.0000   -7.7942    0.0000 C   0  0  0  0  0  0  0  0  0  0  0  0
    3.7500   -6.4952    0.0000 O   0  0  0  0  0  0  0  0  0  0  0  0
    3.0000   -5.1962    0.0000 C   0  0  0  0  0  0  0  0  0  0  0  0
    1.5000   -5.1962    0.0000 C   0  0  0  0  0  0  0  0  0  0  0  0
    0.7500   -3.8971    0.0000 C   0  0  0  0  0  0  0  0  0  0  0  0
    1.5000   -2.5981    0.0000 C   0  0  0  0  0  0  0  0  0  0  0  0
    0.7500   -1.2990    0.0000 C   0  0  0  0  0  0  0  0  0  0  0  0
    1.5000    0.0000    0.0000 C   0  0  0  0  0  0  0  0  0  0  0  0
    0.7500    1.2990    0.0000 N   0  0  0  0  0  0  0  0  0  0  0  0
   -0.7500    1.2990    0.0000 C   0  0  0  0  0  0  0  0  0  0  0  0
   -1.7537    2.4138    0.0000 N   0  0  0  0  0  0  0  0  0  0  0  0
   -3.1240    1.8037    0.0000 C   0  0  0  0  0  0  0  0  0  0  0  0
   -2.9672    0.3119    0.0000 C   0  0  0  0  0  0  0  0  0  0  0  0
   -4.0819   -0.6918    0.0000 C   0  0  0  0  0  0  0  0  0  0  0  0
   -5.5085   -0.2283    0.0000 C   0  0  0  0  0  0  0  0  0  0  0  0
   -6.6232   -1.2320    0.0000 C   0  0  0  0  0  0  0  0  0  0  0  0
   -6.3114   -2.6992    0.0000 C   0  0  0  0  0  0  0  0  0  0  0  0
   -7.4261   -3.7029    0.0000 O   0  0  0  0  0  0  0  0  0  0  0  0
   -8.8527   -3.2394    0.0000 C   0  0  0  0  0  0  0  0  0  0  0  0
   -4.8848   -3.1627    0.0000 C   0  0  0  0  0  0  0  0  0  0  0  0
   -4.5729   -4.6300    0.0000 O   0  0  0  0  0  0  0  0  0  0  0  0
   -3.1463   -5.0935    0.0000 C   0  0  0  0  0  0  0  0  0  0  0  0
   -3.7701   -2.1590    0.0000 C   0  0  0  0  0  0  0  0  0  0  0  0
   -1.5000    0.0000    0.0000 C   0  0  0  0  0  0  0  0  0  0  0  0
   -0.7500   -1.2990    0.0000 C   0  0  0  0  0  0  0  0  0  0  0  0
    3.0000   -2.5981    0.0000 C   0  0  0  0  0  0  0  0  0  0  0  0
    3.7500   -3.8971    0.0000 C   0  0  0  0  0  0  0  0  0  0  0  0
    5.2500   -3.8971    0.0000 N   0  0  0  0  0  0  0  0  0  0  0  0
  1  2  1  0
  2  3  1  0
  3  4  2  0
  4  5  1  0
  5  6  2  0
  6  7  1  0
  7  8  2  0
  8  9  1  0
  9 10  2  0
 10 11  1  0
 11 12  1  0
 12 13  2  0
 13 14  1  0
 14 15  2  0
 15 16  1  0
 16 17  2  0
 17 18  1  0
 18 19  1  0
 17 20  1  0
 20 21  1  0
 21 22  1  0
 20 23  2  0
 13 24  1  0
 24 25  2  0
  6 26  1  0
 26 27  2  0
 27 28  1  0
 27  3  1  0
 25  7  1  0
 24 10  1  0
 23 14  1  0
M  END
>  <Compound_ID>  (882) 
CHEMBL3319470

>  <Molecule Name>  (882) 
nan

>  <Molecular Weight>  (882) 
375.43

>  <AlogP>  (882) 
4.5

>  <Smiles>  (882) 
COc1ccc(-c2cnc3[nH]cc(-c4ccc(OC)c(OC)c4)c3c2)cc1N

>  <Standard Type>  (882) 
Inhibition

>  <Standard Relation>  (882) 
'='

>  <Standard Units>  (882) 
%

>  <Standard Value>  (882) 
11.0

>  <Assay ChEMBL ID>  (882) 
CHEMBL3368579

>  <Assay Description>  (882) 
Inhibition of TRKA (unknown origin) at 1 uM by KINOMEscanning assay relative to control

>  <BAO Format ID>  (882) 
BAO_0000357

>  <BAO Label>  (882) 
single protein format

>  <Assay Organism>  (882) 
Homo sapiens

>  <Target ChEMBL ID>  (882) 
CHEMBL2815

>  <Target Name>  (882) 
Nerve growth factor receptor Trk-A

>  <Target Organism>  (882) 
Homo sapiens

>  <Target Type>  (882) 
SINGLE PROTEIN

>  <Document ChEMBL ID>  (882) 
CHEMBL3352338

>  <Source Description>  (882) 
Scientific Literature

>  <Document Journal>  (882) 
J Med Chem

>  <Document Year>  (882) 
2014.0

>  <Active>  (882) 
0.0

>  <bits>  (882) 
<rdkit.DataStructs.cDataStructs.ExplicitBitVect object at 0x00000159F53A1D90>

>  <Group>  (882) 
G2

$$$$

     RDKit          2D

 35 39  0  0  0  0  0  0  0  0999 V2000
    1.9775   -9.6721    0.0000 C   0  0  0  0  0  0  0  0  0  0  0  0
    3.3478   -9.0619    0.0000 C   0  0  0  0  0  0  0  0  0  0  0  0
    4.5613   -9.9436    0.0000 C   0  0  0  0  0  0  0  0  0  0  0  0
    3.5046   -7.5702    0.0000 N   0  0  0  0  0  0  0  0  0  0  0  0
    2.3899   -6.5665    0.0000 N   0  0  0  0  0  0  0  0  0  0  0  0
    3.0000   -5.1962    0.0000 C   0  0  0  0  0  0  0  0  0  0  0  0
    2.2500   -3.8971    0.0000 C   0  0  0  0  0  0  0  0  0  0  0  0
    1.5000   -2.5981    0.0000 C   0  0  0  0  0  0  0  0  0  0  0  0
    0.7500   -1.2990    0.0000 C   0  0  0  0  0  0  0  0  0  0  0  0
    1.5000    0.0000    0.0000 C   0  0  0  0  0  0  0  0  0  0  0  0
    0.7500    1.2990    0.0000 C   0  0  0  0  0  0  0  0  0  0  0  0
   -0.7500    1.2990    0.0000 C   0  0  0  0  0  0  0  0  0  0  0  0
   -1.5000    0.0000    0.0000 C   0  0  0  0  0  0  0  0  0  0  0  0
   -3.0000    0.0000    0.0000 C   0  0  0  0  0  0  0  0  0  0  0  0
   -3.7500   -1.2990    0.0000 C   0  0  0  0  0  0  0  0  0  0  0  0
   -5.2500   -1.2990    0.0000 C   0  0  0  0  0  0  0  0  0  0  0  0
   -6.0000    0.0000    0.0000 C   0  0  0  0  0  0  0  0  0  0  0  0
   -7.5000    0.0000    0.0000 C   0  0  0  0  0  0  0  0  0  0  0  0
   -8.2500   -1.2990    0.0000 C   0  0  0  0  0  0  0  0  0  0  0  0
   -7.5000   -2.5981    0.0000 C   0  0  0  0  0  0  0  0  0  0  0  0
   -8.2500   -3.8971    0.0000 C   0  0  0  0  0  0  0  0  0  0  0  0
   -9.0000   -5.1962    0.0000 F   0  0  0  0  0  0  0  0  0  0  0  0
   -9.5490   -3.1471    0.0000 F   0  0  0  0  0  0  0  0  0  0  0  0
   -6.9510   -4.6471    0.0000 F   0  0  0  0  0  0  0  0  0  0  0  0
   -6.0000   -2.5981    0.0000 C   0  0  0  0  0  0  0  0  0  0  0  0
   -3.0000   -2.5981    0.0000 N   0  0  0  0  0  0  0  0  0  0  0  0
   -1.5000   -2.5981    0.0000 C   0  0  0  0  0  0  0  0  0  0  0  0
   -0.7500   -1.2990    0.0000 C   0  0  0  0  0  0  0  0  0  0  0  0
    4.4918   -5.3529    0.0000 C   0  0  0  0  0  0  0  0  0  0  0  0
    5.6065   -4.3492    0.0000 C   0  0  0  0  0  0  0  0  0  0  0  0
    5.2946   -2.8820    0.0000 N   0  0  0  0  0  0  0  0  0  0  0  0
    7.0331   -4.8128    0.0000 N   0  0  0  0  0  0  0  0  0  0  0  0
    7.3450   -6.2800    0.0000 C   0  0  0  0  0  0  0  0  0  0  0  0
    6.2302   -7.2837    0.0000 N   0  0  0  0  0  0  0  0  0  0  0  0
    4.8037   -6.8202    0.0000 C   0  0  0  0  0  0  0  0  0  0  0  0
  1  2  1  0
  2  3  1  0
  2  4  1  0
  4  5  1  0
  5  6  2  0
  6  7  1  0
  7  8  3  0
  8  9  1  0
  9 10  2  0
 10 11  1  0
 11 12  2  0
 12 13  1  0
 13 14  2  0
 14 15  1  0
 15 16  1  0
 16 17  2  0
 17 18  1  0
 18 19  2  0
 19 20  1  0
 20 21  1  0
 21 22  1  0
 21 23  1  0
 21 24  1  0
 20 25  2  0
 15 26  2  0
 26 27  1  0
 27 28  2  0
  6 29  1  0
 29 30  2  0
 30 31  1  0
 30 32  1  0
 32 33  2  0
 33 34  1  0
 34 35  2  0
 35  4  1  0
 28  9  1  0
 35 29  1  0
 28 13  1  0
 25 16  1  0
M  END
>  <Compound_ID>  (883) 
CHEMBL4247506

>  <Molecule Name>  (883) 
nan

>  <Molecular Weight>  (883) 
472.47

>  <AlogP>  (883) 
5.62

>  <Smiles>  (883) 
CC(C)n1nc(C#Cc2cccc3cc(-c4cccc(C(F)(F)F)c4)ncc23)c2c(N)ncnc21

>  <Standard Type>  (883) 
Inhibition

>  <Standard Relation>  (883) 
'='

>  <Standard Units>  (883) 
%

>  <Standard Value>  (883) 
2.0

>  <Assay ChEMBL ID>  (883) 
CHEMBL4230244

>  <Assay Description>  (883) 
Inhibition of TRKA (unknown origin) at 1 uM by mobility shift microfluidics platform based assay relative to control

>  <BAO Format ID>  (883) 
BAO_0000357

>  <BAO Label>  (883) 
single protein format

>  <Assay Organism>  (883) 
Homo sapiens

>  <Target ChEMBL ID>  (883) 
CHEMBL2815

>  <Target Name>  (883) 
Nerve growth factor receptor Trk-A

>  <Target Organism>  (883) 
Homo sapiens

>  <Target Type>  (883) 
SINGLE PROTEIN

>  <Document ChEMBL ID>  (883) 
CHEMBL4229333

>  <Source Description>  (883) 
Scientific Literature

>  <Document Journal>  (883) 
Eur J Med Chem

>  <Document Year>  (883) 
2018.0

>  <Active>  (883) 
0.0

>  <bits>  (883) 
<rdkit.DataStructs.cDataStructs.ExplicitBitVect object at 0x00000159F53A1E00>

>  <Group>  (883) 
G2

$$$$

     RDKit          2D

 26 29  0  0  0  0  0  0  0  0999 V2000
   -2.6401   -3.1891    0.0000 C   0  0  0  0  0  0  0  0  0  0  0  0
   -1.2135   -2.7256    0.0000 C   0  0  0  0  0  0  0  0  0  0  0  0
   -0.0000   -3.6073    0.0000 N   0  0  0  0  0  0  0  0  0  0  0  0
    1.2135   -2.7256    0.0000 C   0  0  0  0  0  0  0  0  0  0  0  0
    2.6401   -3.1891    0.0000 C   0  0  0  0  0  0  0  0  0  0  0  0
    2.9520   -4.6564    0.0000 C   0  0  0  0  0  0  0  0  0  0  0  0
    4.3786   -5.1199    0.0000 C   0  0  0  0  0  0  0  0  0  0  0  0
    5.4933   -4.1162    0.0000 C   0  0  0  0  0  0  0  0  0  0  0  0
    5.1814   -2.6490    0.0000 C   0  0  0  0  0  0  0  0  0  0  0  0
    3.7548   -2.1855    0.0000 C   0  0  0  0  0  0  0  0  0  0  0  0
    0.7500   -1.2990    0.0000 N   0  0  0  0  0  0  0  0  0  0  0  0
    1.5000    0.0000    0.0000 N   0  0  0  0  0  0  0  0  0  0  0  0
    0.7500    1.2990    0.0000 C   0  0  0  0  0  0  0  0  0  0  0  0
    1.5000    2.5981    0.0000 N   0  0  0  0  0  0  0  0  0  0  0  0
    3.0000    2.5981    0.0000 C   0  0  0  0  0  0  0  0  0  0  0  0
    3.7500    3.8971    0.0000 C   0  0  0  0  0  0  0  0  0  0  0  0
    5.2500    3.8971    0.0000 C   0  0  0  0  0  0  0  0  0  0  0  0
    6.0000    5.1962    0.0000 N   0  0  0  0  0  0  0  0  0  0  0  0
    7.5000    5.1962    0.0000 C   0  0  0  0  0  0  0  0  0  0  0  0
    8.2500    6.4952    0.0000 C   0  0  0  0  0  0  0  0  0  0  0  0
    7.5000    7.7942    0.0000 O   0  0  0  0  0  0  0  0  0  0  0  0
    6.0000    7.7942    0.0000 C   0  0  0  0  0  0  0  0  0  0  0  0
    5.2500    6.4952    0.0000 C   0  0  0  0  0  0  0  0  0  0  0  0
   -0.7500    1.2990    0.0000 N   0  0  0  0  0  0  0  0  0  0  0  0
   -1.5000    0.0000    0.0000 C   0  0  0  0  0  0  0  0  0  0  0  0
   -0.7500   -1.2990    0.0000 C   0  0  0  0  0  0  0  0  0  0  0  0
  1  2  1  0
  2  3  1  0
  3  4  2  0
  4  5  1  0
  5  6  2  0
  6  7  1  0
  7  8  2  0
  8  9  1  0
  9 10  2  0
  4 11  1  0
 11 12  1  0
 12 13  2  0
 13 14  1  0
 14 15  1  0
 15 16  1  0
 16 17  1  0
 17 18  1  0
 18 19  1  0
 19 20  1  0
 20 21  1  0
 21 22  1  0
 22 23  1  0
 13 24  1  0
 24 25  2  0
 25 26  1  0
 26  2  2  0
 10  5  1  0
 26 11  1  0
 23 18  1  0
M  END
>  <Compound_ID>  (884) 
CHEMBL486124

>  <Molecule Name>  (884) 
GW874091X

>  <Molecular Weight>  (884) 
352.44

>  <AlogP>  (884) 
2.23

>  <Smiles>  (884) 
Cc1nc(-c2ccccc2)n2nc(NCCCN3CCOCC3)ncc12

>  <Standard Type>  (884) 
Inhibition

>  <Standard Relation>  (884) 
'='

>  <Standard Units>  (884) 
%

>  <Standard Value>  (884) 
5.06

>  <Assay ChEMBL ID>  (884) 
CHEMBL1962185

>  <Assay Description>  (884) 
GSK_PKIS: TRKA mean inhibition at 1 uM [Nanosyn]

>  <BAO Format ID>  (884) 
BAO_0000357

>  <BAO Label>  (884) 
single protein format

>  <Assay Organism>  (884) 
None

>  <Target ChEMBL ID>  (884) 
CHEMBL2815

>  <Target Name>  (884) 
Nerve growth factor receptor Trk-A

>  <Target Organism>  (884) 
Homo sapiens

>  <Target Type>  (884) 
SINGLE PROTEIN

>  <Document ChEMBL ID>  (884) 
CHEMBL1961873

>  <Source Description>  (884) 
GSK Published Kinase Inhibitor Set

>  <Document Journal>  (884) 
nan

>  <Document Year>  (884) 
nan

>  <Active>  (884) 
0.0

>  <bits>  (884) 
<rdkit.DataStructs.cDataStructs.ExplicitBitVect object at 0x00000159F53A2490>

>  <Group>  (884) 
G2

$$$$

     RDKit          2D

 30 34  0  0  0  0  0  0  0  0999 V2000
    3.0000    0.0000    0.0000 C   0  0  0  0  0  0  0  0  0  0  0  0
    1.5000    0.0000    0.0000 C   0  0  0  0  0  0  0  0  0  0  0  0
    0.7500   -1.2990    0.0000 C   0  0  0  0  0  0  0  0  0  0  0  0
   -0.7500   -1.2990    0.0000 C   0  0  0  0  0  0  0  0  0  0  0  0
   -1.5000    0.0000    0.0000 C   0  0  0  0  0  0  0  0  0  0  0  0
   -2.9672    0.3119    0.0000 C   0  0  0  0  0  0  0  0  0  0  0  0
   -3.1240    1.8037    0.0000 C   0  0  0  0  0  0  0  0  0  0  0  0
   -4.4231    2.5537    0.0000 C   0  0  0  0  0  0  0  0  0  0  0  0
   -4.5798    4.0454    0.0000 N   0  0  0  0  0  0  0  0  0  0  0  0
   -6.0471    4.3573    0.0000 N   0  0  0  0  0  0  0  0  0  0  0  0
   -6.7971    3.0583    0.0000 C   0  0  0  0  0  0  0  0  0  0  0  0
   -8.2643    2.7464    0.0000 C   0  0  0  0  0  0  0  0  0  0  0  0
   -8.7278    1.3198    0.0000 C   0  0  0  0  0  0  0  0  0  0  0  0
   -7.7241    0.2051    0.0000 C   0  0  0  0  0  0  0  0  0  0  0  0
   -8.1876   -1.2215    0.0000 N   0  0  0  0  0  0  0  0  0  0  0  0
   -9.6549   -1.5334    0.0000 S   0  0  0  0  0  0  0  0  0  0  0  0
   -9.9667   -0.0661    0.0000 O   0  0  0  0  0  0  0  0  0  0  0  0
   -9.3430   -3.0006    0.0000 O   0  0  0  0  0  0  0  0  0  0  0  0
  -11.1221   -1.8452    0.0000 C   0  0  0  0  0  0  0  0  0  0  0  0
  -11.7322   -3.2155    0.0000 N   0  0  0  0  0  0  0  0  0  0  0  0
  -13.2240   -3.0588    0.0000 C   0  0  0  0  0  0  0  0  0  0  0  0
  -13.5358   -1.5915    0.0000 N   0  0  0  0  0  0  0  0  0  0  0  0
  -14.9062   -0.9814    0.0000 C   0  0  0  0  0  0  0  0  0  0  0  0
  -12.2368   -0.8415    0.0000 C   0  0  0  0  0  0  0  0  0  0  0  0
  -12.0800    0.6503    0.0000 C   0  0  0  0  0  0  0  0  0  0  0  0
   -6.2569    0.5170    0.0000 C   0  0  0  0  0  0  0  0  0  0  0  0
   -5.7934    1.9435    0.0000 C   0  0  0  0  0  0  0  0  0  0  0  0
   -1.7537    2.4138    0.0000 N   0  0  0  0  0  0  0  0  0  0  0  0
   -0.7500    1.2990    0.0000 C   0  0  0  0  0  0  0  0  0  0  0  0
    0.7500    1.2990    0.0000 C   0  0  0  0  0  0  0  0  0  0  0  0
  1  2  1  0
  2  3  2  0
  3  4  1  0
  4  5  2  0
  5  6  1  0
  6  7  2  0
  7  8  1  0
  8  9  2  0
  9 10  1  0
 10 11  1  0
 11 12  2  0
 12 13  1  0
 13 14  2  0
 14 15  1  0
 15 16  1  0
 16 17  2  0
 16 18  2  0
 16 19  1  0
 19 20  1  0
 20 21  2  0
 21 22  1  0
 22 23  1  0
 22 24  1  0
 24 25  1  0
 14 26  1  0
 26 27  2  0
  7 28  1  0
 28 29  1  0
 29 30  2  0
 30  2  1  0
 29  5  1  0
 27  8  1  0
 27 11  1  0
 24 19  2  0
M  END
>  <Compound_ID>  (885) 
CHEMBL1684525

>  <Molecule Name>  (885) 
nan

>  <Molecular Weight>  (885) 
420.5

>  <AlogP>  (885) 
3.86

>  <Smiles>  (885) 
Cc1ccc2cc(-c3n[nH]c4ccc(NS(=O)(=O)c5ncn(C)c5C)cc34)[nH]c2c1

>  <Standard Type>  (885) 
Inhibition

>  <Standard Relation>  (885) 
'='

>  <Standard Units>  (885) 
%

>  <Standard Value>  (885) 
4.0

>  <Assay ChEMBL ID>  (885) 
CHEMBL1685880

>  <Assay Description>  (885) 
Inhibition of TrkA at 0.1 uM

>  <BAO Format ID>  (885) 
BAO_0000357

>  <BAO Label>  (885) 
single protein format

>  <Assay Organism>  (885) 
None

>  <Target ChEMBL ID>  (885) 
CHEMBL2815

>  <Target Name>  (885) 
Nerve growth factor receptor Trk-A

>  <Target Organism>  (885) 
Homo sapiens

>  <Target Type>  (885) 
SINGLE PROTEIN

>  <Document ChEMBL ID>  (885) 
CHEMBL1681705

>  <Source Description>  (885) 
Scientific Literature

>  <Document Journal>  (885) 
Bioorg Med Chem Lett

>  <Document Year>  (885) 
2011.0

>  <Active>  (885) 
0.0

>  <bits>  (885) 
<rdkit.DataStructs.cDataStructs.ExplicitBitVect object at 0x00000159F53A3E60>

>  <Group>  (885) 
G2

$$$$

     RDKit          2D

 32 35  0  0  0  0  0  0  0  0999 V2000
    8.2500   -3.8971    0.0000 C   0  0  0  0  0  0  0  0  0  0  0  0
    7.5000   -2.5981    0.0000 O   0  0  0  0  0  0  0  0  0  0  0  0
    6.0000   -2.5981    0.0000 C   0  0  0  0  0  0  0  0  0  0  0  0
    5.2500   -1.2990    0.0000 C   0  0  0  0  0  0  0  0  0  0  0  0
    3.7500   -1.2990    0.0000 N   0  0  0  0  0  0  0  0  0  0  0  0
    3.0000    0.0000    0.0000 C   0  0  0  0  0  0  0  0  0  0  0  0
    3.7500    1.2990    0.0000 O   0  0  0  0  0  0  0  0  0  0  0  0
    1.5000    0.0000    0.0000 C   0  0  0  0  0  0  0  0  0  0  0  0
    0.7500   -1.2990    0.0000 C   0  0  0  0  0  0  0  0  0  0  0  0
   -0.7500   -1.2990    0.0000 C   0  0  0  0  0  0  0  0  0  0  0  0
   -1.5000    0.0000    0.0000 C   0  0  0  0  0  0  0  0  0  0  0  0
   -0.7500    1.2990    0.0000 C   0  0  0  0  0  0  0  0  0  0  0  0
    0.7500    1.2990    0.0000 C   0  0  0  0  0  0  0  0  0  0  0  0
   -1.7537    2.4138    0.0000 N   0  0  0  0  0  0  0  0  0  0  0  0
   -3.1240    1.8037    0.0000 C   0  0  0  0  0  0  0  0  0  0  0  0
   -4.4231    2.5537    0.0000 C   0  0  0  0  0  0  0  0  0  0  0  0
   -5.7934    1.9435    0.0000 C   0  0  0  0  0  0  0  0  0  0  0  0
   -6.7971    3.0583    0.0000 N   0  0  0  0  0  0  0  0  0  0  0  0
   -6.0471    4.3573    0.0000 C   0  0  0  0  0  0  0  0  0  0  0  0
   -6.6572    5.7276    0.0000 C   0  0  0  0  0  0  0  0  0  0  0  0
   -5.7755    6.9411    0.0000 C   0  0  0  0  0  0  0  0  0  0  0  0
   -6.3856    8.3115    0.0000 C   0  0  0  0  0  0  0  0  0  0  0  0
   -7.8774    8.4683    0.0000 C   0  0  0  0  0  0  0  0  0  0  0  0
   -8.4875    9.8386    0.0000 Cl  0  0  0  0  0  0  0  0  0  0  0  0
   -8.7591    7.2547    0.0000 C   0  0  0  0  0  0  0  0  0  0  0  0
   -8.1490    5.8844    0.0000 C   0  0  0  0  0  0  0  0  0  0  0  0
   -4.5798    4.0454    0.0000 N   0  0  0  0  0  0  0  0  0  0  0  0
   -2.9672    0.3119    0.0000 N   0  0  0  0  0  0  0  0  0  0  0  0
   -4.0819   -0.6918    0.0000 C   0  0  0  0  0  0  0  0  0  0  0  0
   -3.7701   -2.1590    0.0000 C   0  0  0  0  0  0  0  0  0  0  0  0
   -4.8848   -3.1627    0.0000 O   0  0  0  0  0  0  0  0  0  0  0  0
   -4.5729   -4.6300    0.0000 C   0  0  0  0  0  0  0  0  0  0  0  0
  1  2  1  0
  2  3  1  0
  3  4  1  0
  4  5  1  0
  5  6  1  0
  6  7  2  0
  6  8  1  0
  8  9  2  0
  9 10  1  0
 10 11  2  0
 11 12  1  0
 12 13  2  0
 12 14  1  0
 14 15  2  0
 15 16  1  0
 16 17  2  0
 17 18  1  0
 18 19  2  0
 19 20  1  0
 20 21  2  0
 21 22  1  0
 22 23  2  0
 23 24  1  0
 23 25  1  0
 25 26  2  0
 19 27  1  0
 15 28  1  0
 28 29  1  0
 29 30  1  0
 30 31  1  0
 31 32  1  0
 13  8  1  0
 27 16  1  0
 28 11  1  0
 26 20  1  0
M  END
>  <Compound_ID>  (886) 
CHEMBL3628628

>  <Molecule Name>  (886) 
nan

>  <Molecular Weight>  (886) 
453.93

>  <AlogP>  (886) 
3.77

>  <Smiles>  (886) 
COCCNC(=O)c1ccc2c(c1)nc(-c1cnc(-c3ccc(Cl)cc3)[nH]1)n2CCOC

>  <Standard Type>  (886) 
Inhibition

>  <Standard Relation>  (886) 
'='

>  <Standard Units>  (886) 
%

>  <Standard Value>  (886) 
5.11

>  <Assay ChEMBL ID>  (886) 
CHEMBL3631502

>  <Assay Description>  (886) 
Inhibition of TRKA (unknown origin) at 10 uM after 120 mins P33 radiolabeled kinase activity assay

>  <BAO Format ID>  (886) 
BAO_0000357

>  <BAO Label>  (886) 
single protein format

>  <Assay Organism>  (886) 
Homo sapiens

>  <Target ChEMBL ID>  (886) 
CHEMBL2815

>  <Target Name>  (886) 
Nerve growth factor receptor Trk-A

>  <Target Organism>  (886) 
Homo sapiens

>  <Target Type>  (886) 
SINGLE PROTEIN

>  <Document ChEMBL ID>  (886) 
CHEMBL3627608

>  <Source Description>  (886) 
Scientific Literature

>  <Document Journal>  (886) 
Bioorg Med Chem

>  <Document Year>  (886) 
2015.0

>  <Active>  (886) 
0.0

>  <bits>  (886) 
<rdkit.DataStructs.cDataStructs.ExplicitBitVect object at 0x00000159F53A1700>

>  <Group>  (886) 
G2

$$$$

     RDKit          2D

 29 31  0  0  0  0  0  0  0  0999 V2000
    6.0000    2.5981    0.0000 C   0  0  0  0  0  0  0  0  0  0  0  0
    6.7500    1.2990    0.0000 N   0  0  0  0  0  0  0  0  0  0  0  0
    6.0000   -0.0000    0.0000 S   0  0  0  0  0  0  0  0  0  0  0  0
    7.2990   -0.7500    0.0000 O   0  0  0  0  0  0  0  0  0  0  0  0
    4.7010    0.7500    0.0000 O   0  0  0  0  0  0  0  0  0  0  0  0
    5.2500   -1.2990    0.0000 C   0  0  0  0  0  0  0  0  0  0  0  0
    6.0000   -2.5981    0.0000 C   0  0  0  0  0  0  0  0  0  0  0  0
    5.2500   -3.8971    0.0000 C   0  0  0  0  0  0  0  0  0  0  0  0
    3.7500   -3.8971    0.0000 C   0  0  0  0  0  0  0  0  0  0  0  0
    3.0000   -5.1962    0.0000 N   0  0  0  0  0  0  0  0  0  0  0  0
    3.7500   -6.4952    0.0000 C   0  0  0  0  0  0  0  0  0  0  0  0
    1.5000   -5.1962    0.0000 C   0  0  0  0  0  0  0  0  0  0  0  0
    3.0000   -2.5981    0.0000 C   0  0  0  0  0  0  0  0  0  0  0  0
    1.5000   -2.5981    0.0000 N   0  0  0  0  0  0  0  0  0  0  0  0
    0.7500   -1.2990    0.0000 C   0  0  0  0  0  0  0  0  0  0  0  0
    1.5000    0.0000    0.0000 N   0  0  0  0  0  0  0  0  0  0  0  0
    0.7500    1.2990    0.0000 C   0  0  0  0  0  0  0  0  0  0  0  0
   -0.7500    1.2990    0.0000 N   0  0  0  0  0  0  0  0  0  0  0  0
   -1.5000    0.0000    0.0000 C   0  0  0  0  0  0  0  0  0  0  0  0
   -3.0000    0.0000    0.0000 C   0  0  0  0  0  0  0  0  0  0  0  0
   -3.7500   -1.2990    0.0000 C   0  0  0  0  0  0  0  0  0  0  0  0
   -5.2500   -1.2990    0.0000 O   0  0  0  0  0  0  0  0  0  0  0  0
   -6.0000    0.0000    0.0000 C   0  0  0  0  0  0  0  0  0  0  0  0
   -3.0000   -2.5981    0.0000 C   0  0  0  0  0  0  0  0  0  0  0  0
   -3.7500   -3.8971    0.0000 O   0  0  0  0  0  0  0  0  0  0  0  0
   -5.2500   -3.8971    0.0000 C   0  0  0  0  0  0  0  0  0  0  0  0
   -1.5000   -2.5981    0.0000 C   0  0  0  0  0  0  0  0  0  0  0  0
   -0.7500   -1.2990    0.0000 C   0  0  0  0  0  0  0  0  0  0  0  0
    3.7500   -1.2990    0.0000 C   0  0  0  0  0  0  0  0  0  0  0  0
  1  2  1  0
  2  3  1  0
  3  4  2  0
  3  5  2  0
  3  6  1  0
  6  7  2  0
  7  8  1  0
  8  9  2  0
  9 10  1  0
 10 11  1  0
 10 12  1  0
  9 13  1  0
 13 14  1  0
 14 15  1  0
 15 16  2  0
 16 17  1  0
 17 18  2  0
 18 19  1  0
 19 20  2  0
 20 21  1  0
 21 22  1  0
 22 23  1  0
 21 24  2  0
 24 25  1  0
 25 26  1  0
 24 27  1  0
 27 28  2  0
 13 29  2  0
 29  6  1  0
 28 15  1  0
 28 19  1  0
M  END
>  <Compound_ID>  (887) 
CHEMBL3815093

>  <Molecule Name>  (887) 
nan

>  <Molecular Weight>  (887) 
417.49

>  <AlogP>  (887) 
2.36

>  <Smiles>  (887) 
CNS(=O)(=O)c1ccc(N(C)C)c(Nc2ncnc3cc(OC)c(OC)cc23)c1

>  <Standard Type>  (887) 
Inhibition

>  <Standard Relation>  (887) 
'='

>  <Standard Units>  (887) 
%

>  <Standard Value>  (887) 
-2.0

>  <Assay ChEMBL ID>  (887) 
CHEMBL3816865

>  <Assay Description>  (887) 
Inhibition of human TRKA at 1 uM using poly[Glu:Tyr] (4:1) as substrate

>  <BAO Format ID>  (887) 
BAO_0000357

>  <BAO Label>  (887) 
single protein format

>  <Assay Organism>  (887) 
Homo sapiens

>  <Target ChEMBL ID>  (887) 
CHEMBL2815

>  <Target Name>  (887) 
Nerve growth factor receptor Trk-A

>  <Target Organism>  (887) 
Homo sapiens

>  <Target Type>  (887) 
SINGLE PROTEIN

>  <Document ChEMBL ID>  (887) 
CHEMBL3813650

>  <Source Description>  (887) 
Scientific Literature

>  <Document Journal>  (887) 
Bioorg Med Chem Lett

>  <Document Year>  (887) 
2016.0

>  <Active>  (887) 
0.0

>  <bits>  (887) 
<rdkit.DataStructs.cDataStructs.ExplicitBitVect object at 0x00000159F53A09E0>

>  <Group>  (887) 
G2

$$$$

     RDKit          2D

 36 41  0  0  0  0  0  0  0  0999 V2000
   -1.5641    0.5522    0.0000 F   0  0  0  0  0  0  0  0  0  0  0  0
   -2.0276   -0.8744    0.0000 C   0  0  0  0  0  0  0  0  0  0  0  0
   -3.4542   -0.4108    0.0000 F   0  0  0  0  0  0  0  0  0  0  0  0
   -0.6010   -1.3379    0.0000 F   0  0  0  0  0  0  0  0  0  0  0  0
   -2.4911   -2.3009    0.0000 C   0  0  0  0  0  0  0  0  0  0  0  0
   -1.4874   -3.4157    0.0000 C   0  0  0  0  0  0  0  0  0  0  0  0
   -1.9509   -4.8423    0.0000 C   0  0  0  0  0  0  0  0  0  0  0  0
   -3.4182   -5.1541    0.0000 C   0  0  0  0  0  0  0  0  0  0  0  0
   -3.8817   -6.5807    0.0000 C   0  0  0  0  0  0  0  0  0  0  0  0
   -5.3083   -7.0442    0.0000 N   0  0  0  0  0  0  0  0  0  0  0  0
   -5.3083   -8.5442    0.0000 N   0  0  0  0  0  0  0  0  0  0  0  0
   -6.4230   -9.5479    0.0000 N   0  0  0  0  0  0  0  0  0  0  0  0
   -6.1111  -11.0151    0.0000 C   0  0  0  0  0  0  0  0  0  0  0  0
   -4.6845  -11.4787    0.0000 C   0  0  0  0  0  0  0  0  0  0  0  0
   -3.5698  -10.4750    0.0000 C   0  0  0  0  0  0  0  0  0  0  0  0
   -3.8817   -9.0078    0.0000 C   0  0  0  0  0  0  0  0  0  0  0  0
   -3.0000   -7.7942    0.0000 C   0  0  0  0  0  0  0  0  0  0  0  0
   -1.5000   -7.7942    0.0000 C   0  0  0  0  0  0  0  0  0  0  0  0
   -0.7500   -9.0933    0.0000 C   0  0  0  0  0  0  0  0  0  0  0  0
    0.7500   -9.0933    0.0000 C   0  0  0  0  0  0  0  0  0  0  0  0
    1.5000   -7.7942    0.0000 N   0  0  0  0  0  0  0  0  0  0  0  0
    0.7500   -6.4952    0.0000 C   0  0  0  0  0  0  0  0  0  0  0  0
    1.5000   -5.1962    0.0000 N   0  0  0  0  0  0  0  0  0  0  0  0
    3.0000   -5.1962    0.0000 C   0  0  0  0  0  0  0  0  0  0  0  0
    3.7500   -6.4952    0.0000 C   0  0  0  0  0  0  0  0  0  0  0  0
    5.2500   -6.4952    0.0000 C   0  0  0  0  0  0  0  0  0  0  0  0
    6.0000   -5.1962    0.0000 C   0  0  0  0  0  0  0  0  0  0  0  0
    5.2500   -3.8971    0.0000 C   0  0  0  0  0  0  0  0  0  0  0  0
    3.7500   -3.8971    0.0000 C   0  0  0  0  0  0  0  0  0  0  0  0
    6.0000   -2.5981    0.0000 O   0  0  0  0  0  0  0  0  0  0  0  0
    7.5000   -2.5981    0.0000 C   0  0  0  0  0  0  0  0  0  0  0  0
    8.2500   -3.8971    0.0000 C   0  0  0  0  0  0  0  0  0  0  0  0
    7.5000   -5.1962    0.0000 O   0  0  0  0  0  0  0  0  0  0  0  0
   -0.7500   -6.4952    0.0000 N   0  0  0  0  0  0  0  0  0  0  0  0
   -4.4218   -4.0394    0.0000 C   0  0  0  0  0  0  0  0  0  0  0  0
   -3.9583   -2.6128    0.0000 C   0  0  0  0  0  0  0  0  0  0  0  0
  1  2  1  0
  2  3  1  0
  2  4  1  0
  2  5  1  0
  5  6  2  0
  6  7  1  0
  7  8  2  0
  8  9  1  0
  9 10  2  0
 10 11  1  0
 11 12  1  0
 12 13  2  0
 13 14  1  0
 14 15  2  0
 15 16  1  0
 16 17  2  0
 17 18  1  0
 18 19  2  0
 19 20  1  0
 20 21  2  0
 21 22  1  0
 22 23  1  0
 23 24  1  0
 24 25  2  0
 25 26  1  0
 26 27  2  0
 27 28  1  0
 28 29  2  0
 28 30  1  0
 30 31  1  0
 31 32  1  0
 32 33  1  0
 22 34  2  0
  8 35  1  0
 35 36  2  0
 36  5  1  0
 17  9  1  0
 34 18  1  0
 16 11  1  0
 29 24  1  0
 33 27  1  0
M  END
>  <Compound_ID>  (888) 
CHEMBL185939

>  <Molecule Name>  (888) 
GW828525X

>  <Molecular Weight>  (888) 
490.45

>  <AlogP>  (888) 
5.39

>  <Smiles>  (888) 
FC(F)(F)c1ccc(-c2nn3ncccc3c2-c2ccnc(Nc3ccc4c(c3)OCCO4)n2)cc1

>  <Standard Type>  (888) 
Inhibition

>  <Standard Relation>  (888) 
'='

>  <Standard Units>  (888) 
%

>  <Standard Value>  (888) 
0.14

>  <Assay ChEMBL ID>  (888) 
CHEMBL1962185

>  <Assay Description>  (888) 
GSK_PKIS: TRKA mean inhibition at 1 uM [Nanosyn]

>  <BAO Format ID>  (888) 
BAO_0000357

>  <BAO Label>  (888) 
single protein format

>  <Assay Organism>  (888) 
None

>  <Target ChEMBL ID>  (888) 
CHEMBL2815

>  <Target Name>  (888) 
Nerve growth factor receptor Trk-A

>  <Target Organism>  (888) 
Homo sapiens

>  <Target Type>  (888) 
SINGLE PROTEIN

>  <Document ChEMBL ID>  (888) 
CHEMBL1961873

>  <Source Description>  (888) 
GSK Published Kinase Inhibitor Set

>  <Document Journal>  (888) 
nan

>  <Document Year>  (888) 
nan

>  <Active>  (888) 
0.0

>  <bits>  (888) 
<rdkit.DataStructs.cDataStructs.ExplicitBitVect object at 0x00000159F33CCC80>

>  <Group>  (888) 
G2

$$$$

     RDKit          2D

 45 50  0  0  0  0  0  0  0  0999 V2000
    7.1181  -10.4063    0.0000 O   0  0  0  0  0  0  0  0  0  0  0  0
    7.7282   -9.0360    0.0000 S   0  0  0  0  0  0  0  0  0  0  0  0
    8.3383   -7.6657    0.0000 O   0  0  0  0  0  0  0  0  0  0  0  0
    6.3579   -8.4259    0.0000 C   0  0  0  0  0  0  0  0  0  0  0  0
    6.2011   -6.9341    0.0000 C   0  0  0  0  0  0  0  0  0  0  0  0
    4.8308   -6.3240    0.0000 O   0  0  0  0  0  0  0  0  0  0  0  0
    4.6740   -4.8322    0.0000 C   0  0  0  0  0  0  0  0  0  0  0  0
    3.3037   -4.2221    0.0000 C   0  0  0  0  0  0  0  0  0  0  0  0
    2.0046   -4.9721    0.0000 C   0  0  0  0  0  0  0  0  0  0  0  0
    0.8899   -3.9684    0.0000 C   0  0  0  0  0  0  0  0  0  0  0  0
    1.5000   -2.5981    0.0000 C   0  0  0  0  0  0  0  0  0  0  0  0
    0.7500   -1.2990    0.0000 C   0  0  0  0  0  0  0  0  0  0  0  0
    1.5000    0.0000    0.0000 C   0  0  0  0  0  0  0  0  0  0  0  0
    0.7500    1.2990    0.0000 C   0  0  0  0  0  0  0  0  0  0  0  0
   -0.7500    1.2990    0.0000 C   0  0  0  0  0  0  0  0  0  0  0  0
   -1.5000    2.5981    0.0000 N   0  0  0  0  0  0  0  0  0  0  0  0
   -3.0000    2.5981    0.0000 C   0  0  0  0  0  0  0  0  0  0  0  0
   -3.7500    1.2990    0.0000 N   0  0  0  0  0  0  0  0  0  0  0  0
   -3.0000    0.0000    0.0000 C   0  0  0  0  0  0  0  0  0  0  0  0
   -3.7500   -1.2990    0.0000 N   0  0  0  0  0  0  0  0  0  0  0  0
   -5.2500   -1.2990    0.0000 C   0  0  0  0  0  0  0  0  0  0  0  0
   -6.0000    0.0000    0.0000 C   0  0  0  0  0  0  0  0  0  0  0  0
   -7.5000    0.0000    0.0000 C   0  0  0  0  0  0  0  0  0  0  0  0
   -8.2500   -1.2990    0.0000 C   0  0  0  0  0  0  0  0  0  0  0  0
   -9.7500   -1.2990    0.0000 O   0  0  0  0  0  0  0  0  0  0  0  0
  -10.5000    0.0000    0.0000 C   0  0  0  0  0  0  0  0  0  0  0  0
  -12.0000    0.0000    0.0000 C   0  0  0  0  0  0  0  0  0  0  0  0
  -12.7500    1.2990    0.0000 C   0  0  0  0  0  0  0  0  0  0  0  0
  -14.2500    1.2990    0.0000 C   0  0  0  0  0  0  0  0  0  0  0  0
  -15.0000    0.0000    0.0000 C   0  0  0  0  0  0  0  0  0  0  0  0
  -14.2500   -1.2990    0.0000 C   0  0  0  0  0  0  0  0  0  0  0  0
  -15.0000   -2.5981    0.0000 F   0  0  0  0  0  0  0  0  0  0  0  0
  -12.7500   -1.2990    0.0000 C   0  0  0  0  0  0  0  0  0  0  0  0
   -7.5000   -2.5981    0.0000 C   0  0  0  0  0  0  0  0  0  0  0  0
   -8.2500   -3.8971    0.0000 Cl  0  0  0  0  0  0  0  0  0  0  0  0
   -6.0000   -2.5981    0.0000 C   0  0  0  0  0  0  0  0  0  0  0  0
   -1.5000    0.0000    0.0000 C   0  0  0  0  0  0  0  0  0  0  0  0
   -0.7500   -1.2990    0.0000 C   0  0  0  0  0  0  0  0  0  0  0  0
    2.9918   -2.7549    0.0000 O   0  0  0  0  0  0  0  0  0  0  0  0
    9.0985   -9.6461    0.0000 C   0  0  0  0  0  0  0  0  0  0  0  0
    9.2553  -11.1379    0.0000 C   0  0  0  0  0  0  0  0  0  0  0  0
   10.6256  -11.7480    0.0000 C   0  0  0  0  0  0  0  0  0  0  0  0
   11.8391  -10.8663    0.0000 C   0  0  0  0  0  0  0  0  0  0  0  0
   11.6824   -9.3745    0.0000 C   0  0  0  0  0  0  0  0  0  0  0  0
   10.3120   -8.7644    0.0000 C   0  0  0  0  0  0  0  0  0  0  0  0
  1  2  2  0
  2  3  2  0
  2  4  1  0
  4  5  1  0
  5  6  1  0
  6  7  1  0
  7  8  1  0
  8  9  2  0
  9 10  1  0
 10 11  2  0
 11 12  1  0
 12 13  2  0
 13 14  1  0
 14 15  2  0
 15 16  1  0
 16 17  2  0
 17 18  1  0
 18 19  2  0
 19 20  1  0
 20 21  1  0
 21 22  2  0
 22 23  1  0
 23 24  2  0
 24 25  1  0
 25 26  1  0
 26 27  1  0
 27 28  2  0
 28 29  1  0
 29 30  2  0
 30 31  1  0
 31 32  1  0
 31 33  2  0
 24 34  1  0
 34 35  1  0
 34 36  2  0
 19 37  1  0
 37 38  2  0
 11 39  1  0
  2 40  1  0
 40 41  2  0
 41 42  1  0
 42 43  2  0
 43 44  1  0
 44 45  2  0
 39  8  1  0
 45 40  1  0
 38 12  1  0
 37 15  1  0
 36 21  1  0
 33 27  1  0
M  END
>  <Compound_ID>  (889) 
CHEMBL212250

>  <Molecule Name>  (889) 
GW615311X

>  <Molecular Weight>  (889) 
644.12

>  <AlogP>  (889) 
8.0

>  <Smiles>  (889) 
O=S(=O)(CCOCc1ccc(-c2ccc3ncnc(Nc4ccc(OCc5cccc(F)c5)c(Cl)c4)c3c2)o1)c1ccccc1

>  <Standard Type>  (889) 
Inhibition

>  <Standard Relation>  (889) 
'='

>  <Standard Units>  (889) 
%

>  <Standard Value>  (889) 
-0.1

>  <Assay ChEMBL ID>  (889) 
CHEMBL1962184

>  <Assay Description>  (889) 
GSK_PKIS: TRKA mean inhibition at 0.1 uM [Nanosyn]

>  <BAO Format ID>  (889) 
BAO_0000357

>  <BAO Label>  (889) 
single protein format

>  <Assay Organism>  (889) 
None

>  <Target ChEMBL ID>  (889) 
CHEMBL2815

>  <Target Name>  (889) 
Nerve growth factor receptor Trk-A

>  <Target Organism>  (889) 
Homo sapiens

>  <Target Type>  (889) 
SINGLE PROTEIN

>  <Document ChEMBL ID>  (889) 
CHEMBL1961873

>  <Source Description>  (889) 
GSK Published Kinase Inhibitor Set

>  <Document Journal>  (889) 
nan

>  <Document Year>  (889) 
nan

>  <Active>  (889) 
0.0

>  <bits>  (889) 
<rdkit.DataStructs.cDataStructs.ExplicitBitVect object at 0x00000159F33CD850>

>  <Group>  (889) 
G2

$$$$

     RDKit          2D

 30 34  0  0  0  0  0  0  0  0999 V2000
    3.7500   -1.2990    0.0000 C   0  0  0  0  0  0  0  0  0  0  0  0
    3.0000    0.0000    0.0000 N   0  0  0  0  0  0  0  0  0  0  0  0
    3.7500    1.2990    0.0000 C   0  0  0  0  0  0  0  0  0  0  0  0
    1.5000    0.0000    0.0000 C   0  0  0  0  0  0  0  0  0  0  0  0
    0.7500   -1.2990    0.0000 C   0  0  0  0  0  0  0  0  0  0  0  0
   -0.7500   -1.2990    0.0000 C   0  0  0  0  0  0  0  0  0  0  0  0
   -1.5000   -2.5981    0.0000 C   0  0  0  0  0  0  0  0  0  0  0  0
   -0.7500   -3.8971    0.0000 N   0  0  0  0  0  0  0  0  0  0  0  0
   -1.5000   -5.1962    0.0000 C   0  0  0  0  0  0  0  0  0  0  0  0
   -3.0000   -5.1962    0.0000 C   0  0  0  0  0  0  0  0  0  0  0  0
   -3.7500   -6.4952    0.0000 C   0  0  0  0  0  0  0  0  0  0  0  0
   -3.0000   -7.7942    0.0000 C   0  0  0  0  0  0  0  0  0  0  0  0
   -3.4635   -9.2208    0.0000 N   0  0  0  0  0  0  0  0  0  0  0  0
   -2.2500  -10.1025    0.0000 C   0  0  0  0  0  0  0  0  0  0  0  0
   -2.2500  -11.6025    0.0000 C   0  0  0  0  0  0  0  0  0  0  0  0
   -3.5490  -12.3525    0.0000 C   0  0  0  0  0  0  0  0  0  0  0  0
   -4.8481  -11.6025    0.0000 C   0  0  0  0  0  0  0  0  0  0  0  0
   -6.1471  -12.3525    0.0000 C   0  0  0  0  0  0  0  0  0  0  0  0
   -6.1471  -13.8525    0.0000 C   0  0  0  0  0  0  0  0  0  0  0  0
   -4.8481  -14.6025    0.0000 C   0  0  0  0  0  0  0  0  0  0  0  0
   -3.5490  -13.8525    0.0000 C   0  0  0  0  0  0  0  0  0  0  0  0
   -1.0365   -9.2208    0.0000 N   0  0  0  0  0  0  0  0  0  0  0  0
   -1.5000   -7.7942    0.0000 C   0  0  0  0  0  0  0  0  0  0  0  0
   -0.7500   -6.4952    0.0000 C   0  0  0  0  0  0  0  0  0  0  0  0
   -3.0000   -2.5981    0.0000 N   0  0  0  0  0  0  0  0  0  0  0  0
   -3.7500   -1.2990    0.0000 C   0  0  0  0  0  0  0  0  0  0  0  0
   -3.0000    0.0000    0.0000 N   0  0  0  0  0  0  0  0  0  0  0  0
   -1.5000    0.0000    0.0000 C   0  0  0  0  0  0  0  0  0  0  0  0
   -0.7500    1.2990    0.0000 C   0  0  0  0  0  0  0  0  0  0  0  0
    0.7500    1.2990    0.0000 N   0  0  0  0  0  0  0  0  0  0  0  0
  1  2  1  0
  2  3  1  0
  2  4  1  0
  4  5  2  0
  5  6  1  0
  6  7  2  0
  7  8  1  0
  8  9  1  0
  9 10  2  0
 10 11  1  0
 11 12  2  0
 12 13  1  0
 13 14  2  0
 14 15  1  0
 15 16  1  0
 16 17  2  0
 17 18  1  0
 18 19  2  0
 19 20  1  0
 20 21  2  0
 14 22  1  0
 22 23  1  0
 23 24  2  0
  7 25  1  0
 25 26  2  0
 26 27  1  0
 27 28  2  0
 28 29  1  0
 29 30  2  0
 30  4  1  0
 28  6  1  0
 24  9  1  0
 23 12  1  0
 21 16  1  0
M  END
>  <Compound_ID>  (890) 
CHEMBL531804

>  <Molecule Name>  (890) 
GW301888X

>  <Molecular Weight>  (890) 
395.47

>  <AlogP>  (890) 
4.3

>  <Smiles>  (890) 
CN(C)c1cc2c(Nc3ccc4nc(Cc5ccccc5)[nH]c4c3)ncnc2cn1

>  <Standard Type>  (890) 
Inhibition

>  <Standard Relation>  (890) 
'='

>  <Standard Units>  (890) 
%

>  <Standard Value>  (890) 
3.31

>  <Assay ChEMBL ID>  (890) 
CHEMBL1962185

>  <Assay Description>  (890) 
GSK_PKIS: TRKA mean inhibition at 1 uM [Nanosyn]

>  <BAO Format ID>  (890) 
BAO_0000357

>  <BAO Label>  (890) 
single protein format

>  <Assay Organism>  (890) 
None

>  <Target ChEMBL ID>  (890) 
CHEMBL2815

>  <Target Name>  (890) 
Nerve growth factor receptor Trk-A

>  <Target Organism>  (890) 
Homo sapiens

>  <Target Type>  (890) 
SINGLE PROTEIN

>  <Document ChEMBL ID>  (890) 
CHEMBL1961873

>  <Source Description>  (890) 
GSK Published Kinase Inhibitor Set

>  <Document Journal>  (890) 
nan

>  <Document Year>  (890) 
nan

>  <Active>  (890) 
0.0

>  <bits>  (890) 
<rdkit.DataStructs.cDataStructs.ExplicitBitVect object at 0x00000159F33CF5A0>

>  <Group>  (890) 
G2

$$$$

     RDKit          2D

 34 38  0  0  0  0  0  0  0  0999 V2000
    3.7500   -1.2990    0.0000 C   0  0  0  0  0  0  0  0  0  0  0  0
    3.0000    0.0000    0.0000 O   0  0  0  0  0  0  0  0  0  0  0  0
    1.5000    0.0000    0.0000 C   0  0  0  0  0  0  0  0  0  0  0  0
    0.7500   -1.2990    0.0000 C   0  0  0  0  0  0  0  0  0  0  0  0
   -0.7500   -1.2990    0.0000 C   0  0  0  0  0  0  0  0  0  0  0  0
   -1.5000    0.0000    0.0000 C   0  0  0  0  0  0  0  0  0  0  0  0
   -3.0000    0.0000    0.0000 C   0  0  0  0  0  0  0  0  0  0  0  0
   -3.8817   -1.2135    0.0000 N   0  0  0  0  0  0  0  0  0  0  0  0
   -5.3083   -0.7500    0.0000 O   0  0  0  0  0  0  0  0  0  0  0  0
   -5.3083    0.7500    0.0000 C   0  0  0  0  0  0  0  0  0  0  0  0
   -6.5218    1.6317    0.0000 C   0  0  0  0  0  0  0  0  0  0  0  0
   -6.3650    3.1235    0.0000 N   0  0  0  0  0  0  0  0  0  0  0  0
   -4.9947    3.7336    0.0000 C   0  0  0  0  0  0  0  0  0  0  0  0
   -4.8379    5.2253    0.0000 C   0  0  0  0  0  0  0  0  0  0  0  0
   -6.0514    6.1070    0.0000 N   0  0  0  0  0  0  0  0  0  0  0  0
   -5.8946    7.5988    0.0000 C   0  0  0  0  0  0  0  0  0  0  0  0
   -4.5243    8.2089    0.0000 C   0  0  0  0  0  0  0  0  0  0  0  0
   -4.3675    9.7007    0.0000 C   0  0  0  0  0  0  0  0  0  0  0  0
   -2.9972   10.3108    0.0000 N   0  0  0  0  0  0  0  0  0  0  0  0
   -1.7837    9.4291    0.0000 C   0  0  0  0  0  0  0  0  0  0  0  0
   -1.9405    7.9373    0.0000 C   0  0  0  0  0  0  0  0  0  0  0  0
   -0.7269    7.0557    0.0000 C   0  0  0  0  0  0  0  0  0  0  0  0
    0.6434    7.6658    0.0000 C   0  0  0  0  0  0  0  0  0  0  0  0
    0.8002    9.1576    0.0000 C   0  0  0  0  0  0  0  0  0  0  0  0
    2.1705    9.7677    0.0000 O   0  0  0  0  0  0  0  0  0  0  0  0
   -0.4133   10.0392    0.0000 C   0  0  0  0  0  0  0  0  0  0  0  0
   -5.5810   10.5824    0.0000 N   0  0  0  0  0  0  0  0  0  0  0  0
   -6.9514    9.9723    0.0000 C   0  0  0  0  0  0  0  0  0  0  0  0
   -7.1081    8.4805    0.0000 N   0  0  0  0  0  0  0  0  0  0  0  0
   -7.4217    5.4969    0.0000 C   0  0  0  0  0  0  0  0  0  0  0  0
   -7.5785    4.0051    0.0000 C   0  0  0  0  0  0  0  0  0  0  0  0
   -3.8817    1.2135    0.0000 N   0  0  0  0  0  0  0  0  0  0  0  0
   -0.7500    1.2990    0.0000 C   0  0  0  0  0  0  0  0  0  0  0  0
    0.7500    1.2990    0.0000 C   0  0  0  0  0  0  0  0  0  0  0  0
  1  2  1  0
  2  3  1  0
  3  4  2  0
  4  5  1  0
  5  6  2  0
  6  7  1  0
  7  8  2  0
  8  9  1  0
  9 10  1  0
 10 11  1  0
 11 12  1  0
 12 13  1  0
 13 14  1  0
 14 15  1  0
 15 16  1  0
 16 17  2  0
 17 18  1  0
 18 19  1  0
 19 20  1  0
 20 21  2  0
 21 22  1  0
 22 23  2  0
 23 24  1  0
 24 25  1  0
 24 26  2  0
 18 27  2  0
 27 28  1  0
 28 29  2  0
 15 30  1  0
 30 31  1  0
 10 32  2  0
  6 33  1  0
 33 34  2  0
 34  3  1  0
 32  7  1  0
 31 12  1  0
 29 16  1  0
 26 20  1  0
M  END
>  <Compound_ID>  (891) 
CHEMBL483715

>  <Molecule Name>  (891) 
nan

>  <Molecular Weight>  (891) 
459.51

>  <AlogP>  (891) 
3.31

>  <Smiles>  (891) 
COc1ccc(-c2noc(CN3CCN(c4cc(Nc5cccc(O)c5)ncn4)CC3)n2)cc1

>  <Standard Type>  (891) 
Inhibition

>  <Standard Relation>  (891) 
'='

>  <Standard Units>  (891) 
%

>  <Standard Value>  (891) 
7.0

>  <Assay ChEMBL ID>  (891) 
CHEMBL965679

>  <Assay Description>  (891) 
Inhibition of TrkA at 10 uM by HTRF assay relative to control

>  <BAO Format ID>  (891) 
BAO_0000357

>  <BAO Label>  (891) 
single protein format

>  <Assay Organism>  (891) 
None

>  <Target ChEMBL ID>  (891) 
CHEMBL2815

>  <Target Name>  (891) 
Nerve growth factor receptor Trk-A

>  <Target Organism>  (891) 
Homo sapiens

>  <Target Type>  (891) 
SINGLE PROTEIN

>  <Document ChEMBL ID>  (891) 
CHEMBL1150387

>  <Source Description>  (891) 
Scientific Literature

>  <Document Journal>  (891) 
J Med Chem

>  <Document Year>  (891) 
2008.0

>  <Active>  (891) 
0.0

>  <bits>  (891) 
<rdkit.DataStructs.cDataStructs.ExplicitBitVect object at 0x00000159F33CF220>

>  <Group>  (891) 
G2

$$$$

     RDKit          2D

 34 37  0  0  0  0  0  0  0  0999 V2000
    3.0000    0.0000    0.0000 C   0  0  0  0  0  0  0  0  0  0  0  0
    1.5000    0.0000    0.0000 C   0  0  0  0  0  0  0  0  0  0  0  0
    0.7500   -1.2990    0.0000 C   0  0  0  0  0  0  0  0  0  0  0  0
   -0.7500   -1.2990    0.0000 C   0  0  0  0  0  0  0  0  0  0  0  0
   -1.5000    0.0000    0.0000 C   0  0  0  0  0  0  0  0  0  0  0  0
   -0.7500    1.2990    0.0000 C   0  0  0  0  0  0  0  0  0  0  0  0
   -1.5000    2.5981    0.0000 N   0  0  0  0  0  0  0  0  0  0  0  0
   -0.7500    3.8971    0.0000 C   0  0  0  0  0  0  0  0  0  0  0  0
   -3.0000    2.5981    0.0000 C   0  0  0  0  0  0  0  0  0  0  0  0
   -3.7500    3.8971    0.0000 C   0  0  0  0  0  0  0  0  0  0  0  0
   -5.2500    3.8971    0.0000 C   0  0  0  0  0  0  0  0  0  0  0  0
   -6.0000    5.1962    0.0000 N   0  0  0  0  0  0  0  0  0  0  0  0
   -5.2500    6.4952    0.0000 C   0  0  0  0  0  0  0  0  0  0  0  0
   -3.7500    6.4952    0.0000 C   0  0  0  0  0  0  0  0  0  0  0  0
   -3.0000    7.7942    0.0000 C   0  0  0  0  0  0  0  0  0  0  0  0
   -3.7500    9.0933    0.0000 C   0  0  0  0  0  0  0  0  0  0  0  0
   -5.2500    9.0933    0.0000 C   0  0  0  0  0  0  0  0  0  0  0  0
   -6.0000   10.3923    0.0000 C   0  0  0  0  0  0  0  0  0  0  0  0
   -7.5000   10.3923    0.0000 O   0  0  0  0  0  0  0  0  0  0  0  0
   -5.2500   11.6913    0.0000 N   0  0  0  0  0  0  0  0  0  0  0  0
   -6.0000   12.9904    0.0000 C   0  0  0  0  0  0  0  0  0  0  0  0
   -3.7500   11.6913    0.0000 C   0  0  0  0  0  0  0  0  0  0  0  0
   -3.0000   12.9904    0.0000 C   0  0  0  0  0  0  0  0  0  0  0  0
   -1.5000   12.9904    0.0000 C   0  0  0  0  0  0  0  0  0  0  0  0
   -0.7500   11.6913    0.0000 C   0  0  0  0  0  0  0  0  0  0  0  0
    0.7500   11.6913    0.0000 C   0  0  0  0  0  0  0  0  0  0  0  0
    1.5000   12.9904    0.0000 C   0  0  0  0  0  0  0  0  0  0  0  0
    0.7500   14.2894    0.0000 C   0  0  0  0  0  0  0  0  0  0  0  0
   -0.7500   14.2894    0.0000 N   0  0  0  0  0  0  0  0  0  0  0  0
   -6.0000    7.7942    0.0000 C   0  0  0  0  0  0  0  0  0  0  0  0
   -6.0000    2.5981    0.0000 N   0  0  0  0  0  0  0  0  0  0  0  0
   -5.2500    1.2990    0.0000 C   0  0  0  0  0  0  0  0  0  0  0  0
   -3.7500    1.2990    0.0000 N   0  0  0  0  0  0  0  0  0  0  0  0
    0.7500    1.2990    0.0000 C   0  0  0  0  0  0  0  0  0  0  0  0
  1  2  1  0
  2  3  2  0
  3  4  1  0
  4  5  2  0
  5  6  1  0
  6  7  1  0
  7  8  1  0
  7  9  1  0
  9 10  2  0
 10 11  1  0
 11 12  1  0
 12 13  1  0
 13 14  2  0
 14 15  1  0
 15 16  2  0
 16 17  1  0
 17 18  1  0
 18 19  2  0
 18 20  1  0
 20 21  1  0
 20 22  1  0
 22 23  1  0
 23 24  1  0
 24 25  2  0
 25 26  1  0
 26 27  2  0
 27 28  1  0
 28 29  2  0
 17 30  2  0
 11 31  2  0
 31 32  1  0
 32 33  2  0
  6 34  2  0
 34  2  1  0
 33  9  1  0
 30 13  1  0
 29 24  1  0
M  END
>  <Compound_ID>  (892) 
CHEMBL521469

>  <Molecule Name>  (892) 
nan

>  <Molecular Weight>  (892) 
452.56

>  <AlogP>  (892) 
5.01

>  <Smiles>  (892) 
Cc1cccc(N(C)c2cc(Nc3cccc(C(=O)N(C)CCc4ccccn4)c3)ncn2)c1

>  <Standard Type>  (892) 
Inhibition

>  <Standard Relation>  (892) 
'='

>  <Standard Units>  (892) 
%

>  <Standard Value>  (892) 
10.0

>  <Assay ChEMBL ID>  (892) 
CHEMBL965679

>  <Assay Description>  (892) 
Inhibition of TrkA at 10 uM by HTRF assay relative to control

>  <BAO Format ID>  (892) 
BAO_0000357

>  <BAO Label>  (892) 
single protein format

>  <Assay Organism>  (892) 
None

>  <Target ChEMBL ID>  (892) 
CHEMBL2815

>  <Target Name>  (892) 
Nerve growth factor receptor Trk-A

>  <Target Organism>  (892) 
Homo sapiens

>  <Target Type>  (892) 
SINGLE PROTEIN

>  <Document ChEMBL ID>  (892) 
CHEMBL1150387

>  <Source Description>  (892) 
Scientific Literature

>  <Document Journal>  (892) 
J Med Chem

>  <Document Year>  (892) 
2008.0

>  <Active>  (892) 
0.0

>  <bits>  (892) 
<rdkit.DataStructs.cDataStructs.ExplicitBitVect object at 0x00000159F33CCC10>

>  <Group>  (892) 
G2

$$$$

     RDKit          2D

 34 38  0  0  0  0  0  0  0  0999 V2000
  -12.0000   -7.7942    0.0000 C   0  0  0  0  0  0  0  0  0  0  0  0
  -12.7500   -6.4952    0.0000 C   0  0  0  0  0  0  0  0  0  0  0  0
  -14.2500   -6.4952    0.0000 C   0  0  0  0  0  0  0  0  0  0  0  0
  -15.0000   -5.1962    0.0000 C   0  0  0  0  0  0  0  0  0  0  0  0
  -14.2500   -3.8971    0.0000 C   0  0  0  0  0  0  0  0  0  0  0  0
  -12.7500   -3.8971    0.0000 C   0  0  0  0  0  0  0  0  0  0  0  0
  -12.0000   -2.5981    0.0000 N   0  0  0  0  0  0  0  0  0  0  0  0
  -12.7500   -1.2990    0.0000 C   0  0  0  0  0  0  0  0  0  0  0  0
  -10.5000   -2.5981    0.0000 C   0  0  0  0  0  0  0  0  0  0  0  0
   -9.7500   -3.8971    0.0000 C   0  0  0  0  0  0  0  0  0  0  0  0
   -8.2500   -3.8971    0.0000 C   0  0  0  0  0  0  0  0  0  0  0  0
   -7.5000   -5.1962    0.0000 N   0  0  0  0  0  0  0  0  0  0  0  0
   -6.0000   -5.1962    0.0000 C   0  0  0  0  0  0  0  0  0  0  0  0
   -5.2500   -6.4952    0.0000 C   0  0  0  0  0  0  0  0  0  0  0  0
   -3.7500   -6.4952    0.0000 C   0  0  0  0  0  0  0  0  0  0  0  0
   -3.0000   -5.1962    0.0000 C   0  0  0  0  0  0  0  0  0  0  0  0
   -3.7500   -3.8971    0.0000 C   0  0  0  0  0  0  0  0  0  0  0  0
   -3.0000   -2.5981    0.0000 C   0  0  0  0  0  0  0  0  0  0  0  0
   -3.7500   -1.2990    0.0000 O   0  0  0  0  0  0  0  0  0  0  0  0
   -1.5000   -2.5981    0.0000 N   0  0  0  0  0  0  0  0  0  0  0  0
   -0.7500   -3.8971    0.0000 C   0  0  0  0  0  0  0  0  0  0  0  0
    0.7500   -3.8971    0.0000 C   0  0  0  0  0  0  0  0  0  0  0  0
    1.5000   -2.5981    0.0000 C   0  0  0  0  0  0  0  0  0  0  0  0
    0.7500   -1.2990    0.0000 C   0  0  0  0  0  0  0  0  0  0  0  0
    1.5000    0.0000    0.0000 C   0  0  0  0  0  0  0  0  0  0  0  0
    0.7500    1.2990    0.0000 C   0  0  0  0  0  0  0  0  0  0  0  0
   -0.7500    1.2990    0.0000 C   0  0  0  0  0  0  0  0  0  0  0  0
   -1.5000    0.0000    0.0000 C   0  0  0  0  0  0  0  0  0  0  0  0
   -0.7500   -1.2990    0.0000 C   0  0  0  0  0  0  0  0  0  0  0  0
   -5.2500   -3.8971    0.0000 C   0  0  0  0  0  0  0  0  0  0  0  0
   -7.5000   -2.5981    0.0000 N   0  0  0  0  0  0  0  0  0  0  0  0
   -8.2500   -1.2990    0.0000 C   0  0  0  0  0  0  0  0  0  0  0  0
   -9.7500   -1.2990    0.0000 N   0  0  0  0  0  0  0  0  0  0  0  0
  -12.0000   -5.1962    0.0000 C   0  0  0  0  0  0  0  0  0  0  0  0
  1  2  1  0
  2  3  2  0
  3  4  1  0
  4  5  2  0
  5  6  1  0
  6  7  1  0
  7  8  1  0
  7  9  1  0
  9 10  2  0
 10 11  1  0
 11 12  1  0
 12 13  1  0
 13 14  2  0
 14 15  1  0
 15 16  2  0
 16 17  1  0
 17 18  1  0
 18 19  2  0
 18 20  1  0
 20 21  1  0
 21 22  1  0
 22 23  1  0
 23 24  1  0
 24 25  1  0
 25 26  1  0
 26 27  1  0
 27 28  1  0
 28 29  1  0
 17 30  2  0
 11 31  2  0
 31 32  1  0
 32 33  2  0
  6 34  2  0
 34  2  1  0
 33  9  1  0
 30 13  1  0
 29 20  1  0
 29 24  1  0
M  END
>  <Compound_ID>  (893) 
CHEMBL499606

>  <Molecule Name>  (893) 
nan

>  <Molecular Weight>  (893) 
455.61

>  <AlogP>  (893) 
6.09

>  <Smiles>  (893) 
Cc1cccc(N(C)c2cc(Nc3cccc(C(=O)N4CCCC5CCCCC54)c3)ncn2)c1

>  <Standard Type>  (893) 
Inhibition

>  <Standard Relation>  (893) 
'='

>  <Standard Units>  (893) 
%

>  <Standard Value>  (893) 
12.0

>  <Assay ChEMBL ID>  (893) 
CHEMBL965679

>  <Assay Description>  (893) 
Inhibition of TrkA at 10 uM by HTRF assay relative to control

>  <BAO Format ID>  (893) 
BAO_0000357

>  <BAO Label>  (893) 
single protein format

>  <Assay Organism>  (893) 
None

>  <Target ChEMBL ID>  (893) 
CHEMBL2815

>  <Target Name>  (893) 
Nerve growth factor receptor Trk-A

>  <Target Organism>  (893) 
Homo sapiens

>  <Target Type>  (893) 
SINGLE PROTEIN

>  <Document ChEMBL ID>  (893) 
CHEMBL1150387

>  <Source Description>  (893) 
Scientific Literature

>  <Document Journal>  (893) 
J Med Chem

>  <Document Year>  (893) 
2008.0

>  <Active>  (893) 
0.0

>  <bits>  (893) 
<rdkit.DataStructs.cDataStructs.ExplicitBitVect object at 0x00000159F33CFAE0>

>  <Group>  (893) 
G2

$$$$

     RDKit          2D

 28 32  0  0  0  0  0  0  0  0999 V2000
   -2.9520   -4.6564    0.0000 O   0  0  0  0  0  0  0  0  0  0  0  0
   -2.6401   -3.1891    0.0000 N   0  0  0  0  0  0  0  0  0  0  0  0
   -1.2135   -2.7256    0.0000 C   0  0  0  0  0  0  0  0  0  0  0  0
   -0.0000   -3.6073    0.0000 C   0  0  0  0  0  0  0  0  0  0  0  0
    1.2135   -2.7256    0.0000 C   0  0  0  0  0  0  0  0  0  0  0  0
    0.7500   -1.2990    0.0000 C   0  0  0  0  0  0  0  0  0  0  0  0
    1.5000    0.0000    0.0000 C   0  0  0  0  0  0  0  0  0  0  0  0
    0.7500    1.2990    0.0000 C   0  0  0  0  0  0  0  0  0  0  0  0
    1.5000    2.5981    0.0000 C   0  0  0  0  0  0  0  0  0  0  0  0
    0.8899    3.9684    0.0000 N   0  0  0  0  0  0  0  0  0  0  0  0
    2.0046    4.9721    0.0000 C   0  0  0  0  0  0  0  0  0  0  0  0
    1.8478    6.4639    0.0000 C   0  0  0  0  0  0  0  0  0  0  0  0
    3.0613    7.3456    0.0000 C   0  0  0  0  0  0  0  0  0  0  0  0
    2.9046    8.8373    0.0000 C   0  0  0  0  0  0  0  0  0  0  0  0
    1.5342    9.4474    0.0000 N   0  0  0  0  0  0  0  0  0  0  0  0
    0.3207    8.5658    0.0000 C   0  0  0  0  0  0  0  0  0  0  0  0
    0.4775    7.0740    0.0000 C   0  0  0  0  0  0  0  0  0  0  0  0
    3.3037    4.2221    0.0000 N   0  0  0  0  0  0  0  0  0  0  0  0
    2.9918    2.7549    0.0000 C   0  0  0  0  0  0  0  0  0  0  0  0
    3.9955    1.6402    0.0000 C   0  0  0  0  0  0  0  0  0  0  0  0
    3.5320    0.2136    0.0000 C   0  0  0  0  0  0  0  0  0  0  0  0
    4.5356   -0.9012    0.0000 C   0  0  0  0  0  0  0  0  0  0  0  0
    6.0029   -0.5893    0.0000 N   0  0  0  0  0  0  0  0  0  0  0  0
    6.4664    0.8373    0.0000 C   0  0  0  0  0  0  0  0  0  0  0  0
    5.4627    1.9520    0.0000 C   0  0  0  0  0  0  0  0  0  0  0  0
   -0.7500    1.2990    0.0000 C   0  0  0  0  0  0  0  0  0  0  0  0
   -1.5000    0.0000    0.0000 C   0  0  0  0  0  0  0  0  0  0  0  0
   -0.7500   -1.2990    0.0000 C   0  0  0  0  0  0  0  0  0  0  0  0
  1  2  1  0
  2  3  2  3
  3  4  1  0
  4  5  1  0
  5  6  1  0
  6  7  2  0
  7  8  1  0
  8  9  1  0
  9 10  1  0
 10 11  2  0
 11 12  1  0
 12 13  1  0
 13 14  1  0
 14 15  1  0
 15 16  1  0
 16 17  1  0
 11 18  1  0
 18 19  1  0
 19 20  1  0
 20 21  2  0
 21 22  1  0
 22 23  2  0
 23 24  1  0
 24 25  2  0
  8 26  2  0
 26 27  1  0
 27 28  2  0
 28  3  1  0
 28  6  1  0
 19  9  2  0
 25 20  1  0
 17 12  1  0
M  END
>  <Compound_ID>  (894) 
CHEMBL1794071

>  <Molecule Name>  (894) 
nan

>  <Molecular Weight>  (894) 
409.92

>  <AlogP>  (894) 
3.73

>  <Smiles>  (894) 
ON=C1CCc2cc(-c3nc(C4CCNCC4)[nH]c3-c3ccncc3)ccc21

>  <Standard Type>  (894) 
Inhibition

>  <Standard Relation>  (894) 
'='

>  <Standard Units>  (894) 
%

>  <Standard Value>  (894) 
-1.26

>  <Assay ChEMBL ID>  (894) 
CHEMBL1962185

>  <Assay Description>  (894) 
GSK_PKIS: TRKA mean inhibition at 1 uM [Nanosyn]

>  <BAO Format ID>  (894) 
BAO_0000357

>  <BAO Label>  (894) 
single protein format

>  <Assay Organism>  (894) 
None

>  <Target ChEMBL ID>  (894) 
CHEMBL2815

>  <Target Name>  (894) 
Nerve growth factor receptor Trk-A

>  <Target Organism>  (894) 
Homo sapiens

>  <Target Type>  (894) 
SINGLE PROTEIN

>  <Document ChEMBL ID>  (894) 
CHEMBL1961873

>  <Source Description>  (894) 
GSK Published Kinase Inhibitor Set

>  <Document Journal>  (894) 
nan

>  <Document Year>  (894) 
nan

>  <Active>  (894) 
0.0

>  <bits>  (894) 
<rdkit.DataStructs.cDataStructs.ExplicitBitVect object at 0x00000159F33CE5E0>

>  <Group>  (894) 
G2

$$$$

     RDKit          2D

 35 39  0  0  0  0  0  0  0  0999 V2000
   -8.2500   -9.0933    0.0000 C   0  0  0  0  0  0  0  0  0  0  0  0
   -6.7500   -9.0933    0.0000 O   0  0  0  0  0  0  0  0  0  0  0  0
   -6.0000   -7.7942    0.0000 C   0  0  0  0  0  0  0  0  0  0  0  0
   -6.7500   -6.4952    0.0000 C   0  0  0  0  0  0  0  0  0  0  0  0
   -6.0000   -5.1962    0.0000 C   0  0  0  0  0  0  0  0  0  0  0  0
   -4.5000   -5.1962    0.0000 C   0  0  0  0  0  0  0  0  0  0  0  0
   -3.7500   -3.8971    0.0000 S   0  0  0  0  0  0  0  0  0  0  0  0
   -2.4510   -4.6471    0.0000 O   0  0  0  0  0  0  0  0  0  0  0  0
   -5.0490   -3.1471    0.0000 O   0  0  0  0  0  0  0  0  0  0  0  0
   -3.0000   -2.5981    0.0000 N   0  0  0  0  0  0  0  0  0  0  0  0
   -1.5000   -2.5981    0.0000 C   0  0  0  0  0  0  0  0  0  0  0  0
   -0.7500   -3.8971    0.0000 C   0  0  0  0  0  0  0  0  0  0  0  0
    0.7500   -3.8971    0.0000 C   0  0  0  0  0  0  0  0  0  0  0  0
    1.5000   -5.1962    0.0000 S   0  0  0  0  0  0  0  0  0  0  0  0
    0.7500   -6.4952    0.0000 C   0  0  0  0  0  0  0  0  0  0  0  0
   -0.7500   -6.4952    0.0000 N   0  0  0  0  0  0  0  0  0  0  0  0
   -1.5000   -7.7942    0.0000 C   0  0  0  0  0  0  0  0  0  0  0  0
   -0.7500   -9.0933    0.0000 N   0  0  0  0  0  0  0  0  0  0  0  0
    0.7500   -9.0933    0.0000 C   0  0  0  0  0  0  0  0  0  0  0  0
    1.7537  -10.2080    0.0000 N   0  0  0  0  0  0  0  0  0  0  0  0
    3.1240   -9.5979    0.0000 C   0  0  0  0  0  0  0  0  0  0  0  0
    2.9672   -8.1061    0.0000 N   0  0  0  0  0  0  0  0  0  0  0  0
    1.5000   -7.7942    0.0000 C   0  0  0  0  0  0  0  0  0  0  0  0
    1.5000   -2.5981    0.0000 C   0  0  0  0  0  0  0  0  0  0  0  0
    3.0000   -2.5981    0.0000 O   0  0  0  0  0  0  0  0  0  0  0  0
    0.7500   -1.2990    0.0000 C   0  0  0  0  0  0  0  0  0  0  0  0
    1.5000    0.0000    0.0000 C   0  0  0  0  0  0  0  0  0  0  0  0
    0.7500    1.2990    0.0000 C   0  0  0  0  0  0  0  0  0  0  0  0
   -0.7500    1.2990    0.0000 C   0  0  0  0  0  0  0  0  0  0  0  0
   -1.5000    0.0000    0.0000 C   0  0  0  0  0  0  0  0  0  0  0  0
   -0.7500   -1.2990    0.0000 C   0  0  0  0  0  0  0  0  0  0  0  0
   -3.7500   -6.4952    0.0000 C   0  0  0  0  0  0  0  0  0  0  0  0
   -4.5000   -7.7942    0.0000 C   0  0  0  0  0  0  0  0  0  0  0  0
   -3.7500   -9.0933    0.0000 O   0  0  0  0  0  0  0  0  0  0  0  0
   -4.5000  -10.3923    0.0000 C   0  0  0  0  0  0  0  0  0  0  0  0
  1  2  1  0
  2  3  1  0
  3  4  2  0
  4  5  1  0
  5  6  2  0
  6  7  1  0
  7  8  2  0
  7  9  2  0
  7 10  1  0
 10 11  1  0
 11 12  2  0
 12 13  1  0
 13 14  1  0
 14 15  1  0
 15 16  2  0
 16 17  1  0
 17 18  2  0
 18 19  1  0
 19 20  1  0
 20 21  2  0
 21 22  1  0
 22 23  1  0
 13 24  2  0
 24 25  1  0
 24 26  1  0
 26 27  2  0
 27 28  1  0
 28 29  2  0
 29 30  1  0
 30 31  2  0
  6 32  1  0
 32 33  2  0
 33 34  1  0
 34 35  1  0
 33  3  1  0
 31 11  1  0
 23 15  1  0
 31 26  1  0
 23 19  2  0
M  END
>  <Compound_ID>  (895) 
CHEMBL3113284

>  <Molecule Name>  (895) 
nan

>  <Molecular Weight>  (895) 
509.57

>  <AlogP>  (895) 
4.18

>  <Smiles>  (895) 
COc1ccc(S(=O)(=O)Nc2cc(Sc3ncnc4nc[nH]c34)c(O)c3ccccc23)cc1OC

>  <Standard Type>  (895) 
Inhibition

>  <Standard Relation>  (895) 
'='

>  <Standard Units>  (895) 
%

>  <Standard Value>  (895) 
9.0

>  <Assay ChEMBL ID>  (895) 
CHEMBL3117481

>  <Assay Description>  (895) 
Inhibition of TRKA (unknown origin) at 10 uM after 30 mins relative to control

>  <BAO Format ID>  (895) 
BAO_0000357

>  <BAO Label>  (895) 
single protein format

>  <Assay Organism>  (895) 
Homo sapiens

>  <Target ChEMBL ID>  (895) 
CHEMBL2815

>  <Target Name>  (895) 
Nerve growth factor receptor Trk-A

>  <Target Organism>  (895) 
Homo sapiens

>  <Target Type>  (895) 
SINGLE PROTEIN

>  <Document ChEMBL ID>  (895) 
CHEMBL3112530

>  <Source Description>  (895) 
Scientific Literature

>  <Document Journal>  (895) 
Bioorg Med Chem

>  <Document Year>  (895) 
2014.0

>  <Active>  (895) 
0.0

>  <bits>  (895) 
<rdkit.DataStructs.cDataStructs.ExplicitBitVect object at 0x00000159F33CCDD0>

>  <Group>  (895) 
G2

$$$$

     RDKit          2D

 33 37  0  0  0  0  0  0  0  0999 V2000
    1.6849    2.1132    0.0000 H   0  0  0  0  0  0  0  0  0  0  0  0
    2.6491    0.9642    0.0000 C   0  0  0  0  0  0  0  0  0  0  0  0
    3.2321    0.4205    0.0000 H   0  0  0  0  0  0  0  0  0  0  0  0
    3.7981    1.9284    0.0000 H   0  0  0  0  0  0  0  0  0  0  0  0
    1.5000    0.0000    0.0000 C   0  0  0  0  0  0  0  0  0  0  0  0
    2.6491   -0.9642    0.0000 C   0  0  0  0  0  0  0  0  0  0  0  0
    3.2321   -0.4205    0.0000 H   0  0  0  0  0  0  0  0  0  0  0  0
    1.6849   -2.1132    0.0000 H   0  0  0  0  0  0  0  0  0  0  0  0
    3.7981   -1.9284    0.0000 H   0  0  0  0  0  0  0  0  0  0  0  0
    0.7500   -1.2990    0.0000 C   0  0  0  0  0  0  0  0  0  0  0  0
   -0.7500   -1.2990    0.0000 N   0  0  0  0  0  0  0  0  0  0  0  0
   -1.7537   -2.4138    0.0000 N   0  0  0  0  0  0  0  0  0  0  0  0
   -3.1240   -1.8037    0.0000 C   0  0  0  0  0  0  0  0  0  0  0  0
   -4.4231   -2.5537    0.0000 C   0  0  0  0  0  0  0  0  0  0  0  0
   -5.7221   -1.8037    0.0000 C   0  0  0  0  0  0  0  0  0  0  0  0
   -7.0211   -2.5537    0.0000 C   0  0  0  0  0  0  0  0  0  0  0  0
   -7.0211   -4.0537    0.0000 C   0  0  0  0  0  0  0  0  0  0  0  0
   -8.3202   -4.8037    0.0000 F   0  0  0  0  0  0  0  0  0  0  0  0
   -5.7221   -4.8037    0.0000 C   0  0  0  0  0  0  0  0  0  0  0  0
   -4.4231   -4.0537    0.0000 N   0  0  0  0  0  0  0  0  0  0  0  0
   -2.9672   -0.3119    0.0000 C   0  0  0  0  0  0  0  0  0  0  0  0
   -4.0819    0.6918    0.0000 C   0  0  0  0  0  0  0  0  0  0  0  0
   -3.7701    2.1590    0.0000 C   0  0  0  0  0  0  0  0  0  0  0  0
   -4.8848    3.1627    0.0000 C   0  0  0  0  0  0  0  0  0  0  0  0
   -6.3114    2.6992    0.0000 N   0  0  0  0  0  0  0  0  0  0  0  0
   -6.6232    1.2320    0.0000 C   0  0  0  0  0  0  0  0  0  0  0  0
   -7.9223    0.4820    0.0000 N   0  0  0  0  0  0  0  0  0  0  0  0
   -7.6104   -0.9852    0.0000 N   0  0  0  0  0  0  0  0  0  0  0  0
   -6.1186   -1.1420    0.0000 C   0  0  0  0  0  0  0  0  0  0  0  0
   -5.5085    0.2283    0.0000 C   0  0  0  0  0  0  0  0  0  0  0  0
   -1.5000    0.0000    0.0000 C   0  0  0  0  0  0  0  0  0  0  0  0
   -0.7500    1.2990    0.0000 C   0  0  0  0  0  0  0  0  0  0  0  0
    0.7500    1.2990    0.0000 O   0  0  0  0  0  0  0  0  0  0  0  0
  1  2  1  0
  2  3  1  0
  2  4  1  0
  2  5  1  0
  5  6  1  0
  6  7  1  0
  6  8  1  0
  6  9  1  0
  5 10  1  0
 10 11  1  0
 11 12  1  0
 12 13  2  0
 13 14  1  0
 14 15  2  0
 15 16  1  0
 16 17  2  0
 17 18  1  0
 17 19  1  0
 19 20  2  0
 13 21  1  0
 21 22  1  0
 22 23  2  0
 23 24  1  0
 24 25  2  0
 25 26  1  0
 26 27  1  0
 27 28  1  0
 28 29  2  0
 29 30  1  0
 21 31  2  0
 31 32  1  0
 32 33  1  0
 33  5  1  0
 31 11  1  0
 20 14  1  0
 30 22  1  0
 30 26  2  0
M  ISO  6   1   2   3   2   4   2   7   2   8   2   9   2
M  END
>  <Compound_ID>  (896) 
CHEMBL5081774

>  <Molecule Name>  (896) 
nan

>  <Molecular Weight>  (896) 
370.42

>  <AlogP>  (896) 
3.33

>  <Smiles>  (896) 
[2H]C([2H])([2H])C1(C([2H])([2H])[2H])Cn2nc(-c3ccc(F)cn3)c(-c3ccnc4[nH]ncc34)c2CO1

>  <Standard Type>  (896) 
Inhibition

>  <Standard Relation>  (896) 
'='

>  <Standard Units>  (896) 
%

>  <Standard Value>  (896) 
-12.0

>  <Assay ChEMBL ID>  (896) 
CHEMBL5059346

>  <Assay Description>  (896) 
TrkA(h) Kinase panel

>  <BAO Format ID>  (896) 
BAO_0000357

>  <BAO Label>  (896) 
single protein format

>  <Assay Organism>  (896) 
Homo sapiens

>  <Target ChEMBL ID>  (896) 
CHEMBL2815

>  <Target Name>  (896) 
Nerve growth factor receptor Trk-A

>  <Target Organism>  (896) 
Homo sapiens

>  <Target Type>  (896) 
SINGLE PROTEIN

>  <Document ChEMBL ID>  (896) 
CHEMBL5058645

>  <Source Description>  (896) 
Donated Chemical Probes - SGC Frankfurt

>  <Document Journal>  (896) 
nan

>  <Document Year>  (896) 
2022.0

>  <Active>  (896) 
0.0

>  <bits>  (896) 
<rdkit.DataStructs.cDataStructs.ExplicitBitVect object at 0x00000159F33CEA40>

>  <Group>  (896) 
G2

$$$$

     RDKit          2D

 38 42  0  0  0  0  0  0  0  0999 V2000
   -8.2500   -1.2990    0.0000 C   0  0  0  0  0  0  0  0  0  0  0  0
   -7.5000   -2.5981    0.0000 O   0  0  0  0  0  0  0  0  0  0  0  0
   -6.0000   -2.5981    0.0000 C   0  0  0  0  0  0  0  0  0  0  0  0
   -5.2500   -1.2990    0.0000 C   0  0  0  0  0  0  0  0  0  0  0  0
   -3.7500   -1.2990    0.0000 C   0  0  0  0  0  0  0  0  0  0  0  0
   -3.0000   -2.5981    0.0000 C   0  0  0  0  0  0  0  0  0  0  0  0
   -1.5000   -2.5981    0.0000 N   0  0  0  0  0  0  0  0  0  0  0  0
   -0.7500   -3.8971    0.0000 C   0  0  0  0  0  0  0  0  0  0  0  0
   -1.5000   -5.1962    0.0000 O   0  0  0  0  0  0  0  0  0  0  0  0
    0.7500   -3.8971    0.0000 C   0  0  0  0  0  0  0  0  0  0  0  0
    1.5000   -2.5981    0.0000 O   0  0  0  0  0  0  0  0  0  0  0  0
    0.7500   -1.2990    0.0000 C   0  0  0  0  0  0  0  0  0  0  0  0
    1.5000    0.0000    0.0000 C   0  0  0  0  0  0  0  0  0  0  0  0
    0.7500    1.2990    0.0000 C   0  0  0  0  0  0  0  0  0  0  0  0
   -0.7500    1.2990    0.0000 C   0  0  0  0  0  0  0  0  0  0  0  0
   -1.5000    2.5981    0.0000 C   0  0  0  0  0  0  0  0  0  0  0  0
   -0.7500    3.8971    0.0000 C   0  0  0  0  0  0  0  0  0  0  0  0
   -1.5000    5.1962    0.0000 N   0  0  0  0  0  0  0  0  0  0  0  0
   -3.0000    5.1962    0.0000 C   0  0  0  0  0  0  0  0  0  0  0  0
   -3.7500    6.4952    0.0000 O   0  0  0  0  0  0  0  0  0  0  0  0
   -3.0000    7.7942    0.0000 C   0  0  0  0  0  0  0  0  0  0  0  0
   -3.7500    3.8971    0.0000 C   0  0  0  0  0  0  0  0  0  0  0  0
   -5.2500    3.8971    0.0000 N   0  0  0  0  0  0  0  0  0  0  0  0
   -6.0000    5.1962    0.0000 S   0  0  0  0  0  0  0  0  0  0  0  0
   -4.7010    5.9462    0.0000 O   0  0  0  0  0  0  0  0  0  0  0  0
   -7.2990    4.4462    0.0000 O   0  0  0  0  0  0  0  0  0  0  0  0
   -6.7500    6.4952    0.0000 C   0  0  0  0  0  0  0  0  0  0  0  0
   -8.2500    6.4952    0.0000 C   0  0  0  0  0  0  0  0  0  0  0  0
   -9.0000    7.7942    0.0000 C   0  0  0  0  0  0  0  0  0  0  0  0
   -8.2500    9.0933    0.0000 C   0  0  0  0  0  0  0  0  0  0  0  0
   -9.0000   10.3923    0.0000 F   0  0  0  0  0  0  0  0  0  0  0  0
   -6.7500    9.0933    0.0000 C   0  0  0  0  0  0  0  0  0  0  0  0
   -6.0000    7.7942    0.0000 C   0  0  0  0  0  0  0  0  0  0  0  0
   -3.0000    2.5981    0.0000 C   0  0  0  0  0  0  0  0  0  0  0  0
   -1.5000    0.0000    0.0000 C   0  0  0  0  0  0  0  0  0  0  0  0
   -0.7500   -1.2990    0.0000 C   0  0  0  0  0  0  0  0  0  0  0  0
   -3.7500   -3.8971    0.0000 C   0  0  0  0  0  0  0  0  0  0  0  0
   -5.2500   -3.8971    0.0000 C   0  0  0  0  0  0  0  0  0  0  0  0
  1  2  1  0
  2  3  1  0
  3  4  2  0
  4  5  1  0
  5  6  2  0
  6  7  1  0
  7  8  1  0
  8  9  2  0
  8 10  1  0
 10 11  1  0
 11 12  1  0
 12 13  2  0
 13 14  1  0
 14 15  2  0
 15 16  1  0
 16 17  2  0
 17 18  1  0
 18 19  2  0
 19 20  1  0
 20 21  1  0
 19 22  1  0
 22 23  1  0
 23 24  1  0
 24 25  2  0
 24 26  2  0
 24 27  1  0
 27 28  2  0
 28 29  1  0
 29 30  2  0
 30 31  1  0
 30 32  1  0
 32 33  2  0
 22 34  2  0
 15 35  1  0
 35 36  2  0
  6 37  1  0
 37 38  2  0
 38  3  1  0
 36  7  1  0
 36 12  1  0
 34 16  1  0
 33 27  1  0
M  END
>  <Compound_ID>  (897) 
CHEMBL4528675

>  <Molecule Name>  (897) 
nan

>  <Molecular Weight>  (897) 
535.55

>  <AlogP>  (897) 
4.76

>  <Smiles>  (897) 
COc1ccc(N2C(=O)COc3ccc(-c4cnc(OC)c(NS(=O)(=O)c5ccc(F)cc5)c4)cc32)cc1

>  <Standard Type>  (897) 
Inhibition

>  <Standard Relation>  (897) 
'='

>  <Standard Units>  (897) 
%

>  <Standard Value>  (897) 
5.12

>  <Assay ChEMBL ID>  (897) 
CHEMBL4366623

>  <Assay Description>  (897) 
Inhibition of human TRKA at 100 nM using poly[Glu:Tyr] (4:1) as substrate by [gamma-33P]-ATP assay

>  <BAO Format ID>  (897) 
BAO_0000357

>  <BAO Label>  (897) 
single protein format

>  <Assay Organism>  (897) 
Homo sapiens

>  <Target ChEMBL ID>  (897) 
CHEMBL2815

>  <Target Name>  (897) 
Nerve growth factor receptor Trk-A

>  <Target Organism>  (897) 
Homo sapiens

>  <Target Type>  (897) 
SINGLE PROTEIN

>  <Document ChEMBL ID>  (897) 
CHEMBL4364276

>  <Source Description>  (897) 
Scientific Literature

>  <Document Journal>  (897) 
Eur J Med Chem

>  <Document Year>  (897) 
2019.0

>  <Active>  (897) 
0.0

>  <bits>  (897) 
<rdkit.DataStructs.cDataStructs.ExplicitBitVect object at 0x00000159F33CC4A0>

>  <Group>  (897) 
G2

$$$$

     RDKit          2D

 28 32  0  0  0  0  0  0  0  0999 V2000
    3.7500   -1.2990    0.0000 C   0  0  0  0  0  0  0  0  0  0  0  0
    3.0000    0.0000    0.0000 O   0  0  0  0  0  0  0  0  0  0  0  0
    1.5000    0.0000    0.0000 C   0  0  0  0  0  0  0  0  0  0  0  0
    0.7500   -1.2990    0.0000 C   0  0  0  0  0  0  0  0  0  0  0  0
   -0.7500   -1.2990    0.0000 C   0  0  0  0  0  0  0  0  0  0  0  0
   -1.5000    0.0000    0.0000 C   0  0  0  0  0  0  0  0  0  0  0  0
   -3.0000    0.0000    0.0000 C   0  0  0  0  0  0  0  0  0  0  0  0
   -3.7500   -1.2990    0.0000 O   0  0  0  0  0  0  0  0  0  0  0  0
   -5.2500   -1.2990    0.0000 C   0  0  0  0  0  0  0  0  0  0  0  0
   -6.0000   -2.5981    0.0000 C   0  0  0  0  0  0  0  0  0  0  0  0
   -5.3899   -3.9684    0.0000 N   0  0  0  0  0  0  0  0  0  0  0  0
   -6.5046   -4.9721    0.0000 N   0  0  0  0  0  0  0  0  0  0  0  0
   -7.8037   -4.2221    0.0000 C   0  0  0  0  0  0  0  0  0  0  0  0
   -9.2954   -4.3789    0.0000 S   0  0  0  0  0  0  0  0  0  0  0  0
   -9.9055   -3.0086    0.0000 C   0  0  0  0  0  0  0  0  0  0  0  0
  -11.3728   -2.6967    0.0000 C   0  0  0  0  0  0  0  0  0  0  0  0
  -12.4875   -3.7004    0.0000 C   0  0  0  0  0  0  0  0  0  0  0  0
  -13.7865   -2.9504    0.0000 N   0  0  0  0  0  0  0  0  0  0  0  0
  -13.4746   -1.4832    0.0000 N   0  0  0  0  0  0  0  0  0  0  0  0
  -14.4783   -0.3685    0.0000 C   0  0  0  0  0  0  0  0  0  0  0  0
  -11.9829   -1.3264    0.0000 C   0  0  0  0  0  0  0  0  0  0  0  0
   -8.7908   -2.0049    0.0000 N   0  0  0  0  0  0  0  0  0  0  0  0
   -7.4918   -2.7549    0.0000 N   0  0  0  0  0  0  0  0  0  0  0  0
   -3.7500    1.2990    0.0000 C   0  0  0  0  0  0  0  0  0  0  0  0
   -3.0000    2.5981    0.0000 C   0  0  0  0  0  0  0  0  0  0  0  0
   -1.5000    2.5981    0.0000 N   0  0  0  0  0  0  0  0  0  0  0  0
   -0.7500    1.2990    0.0000 C   0  0  0  0  0  0  0  0  0  0  0  0
    0.7500    1.2990    0.0000 C   0  0  0  0  0  0  0  0  0  0  0  0
  1  2  1  0
  2  3  1  0
  3  4  2  0
  4  5  1  0
  5  6  2  0
  6  7  1  0
  7  8  1  0
  8  9  1  0
  9 10  1  0
 10 11  2  0
 11 12  1  0
 12 13  2  0
 13 14  1  0
 14 15  1  0
 15 16  1  0
 16 17  1  0
 17 18  2  0
 18 19  1  0
 19 20  1  0
 19 21  1  0
 15 22  2  0
 22 23  1  0
  7 24  2  0
 24 25  1  0
 25 26  2  0
 26 27  1  0
 27 28  2  0
 28  3  1  0
 27  6  1  0
 23 10  1  0
 23 13  1  0
 21 16  2  0
M  END
>  <Compound_ID>  (898) 
CHEMBL4249147

>  <Molecule Name>  (898) 
nan

>  <Molecular Weight>  (898) 
393.43

>  <AlogP>  (898) 
2.72

>  <Smiles>  (898) 
COc1ccc2c(OCc3nnc4sc(-c5cnn(C)c5)nn34)ccnc2c1

>  <Standard Type>  (898) 
Inhibition

>  <Standard Relation>  (898) 
'='

>  <Standard Units>  (898) 
%

>  <Standard Value>  (898) 
-11.8

>  <Assay ChEMBL ID>  (898) 
CHEMBL4231731

>  <Assay Description>  (898) 
Inhibition of GST-tagged human TRKA at 5 uM preincubated for 20 mins followed by [33P]-ATP addition measured after 2 hrs by Hot-Spot kinase assay

>  <BAO Format ID>  (898) 
BAO_0000357

>  <BAO Label>  (898) 
single protein format

>  <Assay Organism>  (898) 
Homo sapiens

>  <Target ChEMBL ID>  (898) 
CHEMBL2815

>  <Target Name>  (898) 
Nerve growth factor receptor Trk-A

>  <Target Organism>  (898) 
Homo sapiens

>  <Target Type>  (898) 
SINGLE PROTEIN

>  <Document ChEMBL ID>  (898) 
CHEMBL4229371

>  <Source Description>  (898) 
Scientific Literature

>  <Document Journal>  (898) 
Eur J Med Chem

>  <Document Year>  (898) 
2018.0

>  <Active>  (898) 
0.0

>  <bits>  (898) 
<rdkit.DataStructs.cDataStructs.ExplicitBitVect object at 0x00000159F33CDE00>

>  <Group>  (898) 
G2

$$$$
